Biofocus 037_0043_0061
  MOE2020           3D

 32 34  0  0  0  0  0  0  0  0999 V2000
   -1.4450   -0.2200   -0.9160 N   0  0  0  0  0  0  0  0  0  0  0  0
   -1.2810   -0.0500    0.4200 C   0  0  0  0  0  0  0  0  0  0  0  0
   -0.0060   -0.1210    1.0320 N   0  0  0  0  0  0  0  0  0  0  0  0
   -3.8220    0.1360   -0.6740 C   0  0  0  0  0  0  0  0  0  0  0  0
   -2.6940   -0.1270   -1.4280 C   0  0  0  0  0  0  0  0  0  0  0  0
    2.8390    0.2550   -1.3580 N   0  0  0  0  0  0  0  0  0  0  0  0
   -5.1550    0.2420   -1.2500 C   0  0  0  0  0  0  0  0  0  0  0  0
   -3.6530    0.3140    0.6890 C   0  0  0  0  0  0  0  0  0  0  0  0
   -2.3780    0.2240    1.2450 C   0  0  0  0  0  0  0  0  0  0  0  0
    1.2880   -0.0830    0.4900 C   0  0  0  0  0  0  0  0  0  0  0  0
    1.5890    0.2350   -0.8310 C   0  0  0  0  0  0  0  0  0  0  0  0
    3.8530   -0.0610   -0.5260 C   0  0  0  0  0  0  0  0  0  0  0  0
   -5.3400    1.0060   -2.4130 C   0  0  0  0  0  0  0  0  0  0  0  0
   -6.2560   -0.4490   -0.7200 C   0  0  0  0  0  0  0  0  0  0  0  0
    2.3810   -0.4020    1.3070 C   0  0  0  0  0  0  0  0  0  0  0  0
    3.6790   -0.3930    0.8040 C   0  0  0  0  0  0  0  0  0  0  0  0
   -7.5090   -0.3700   -1.3290 C   0  0  0  0  0  0  0  0  0  0  0  0
   -6.5940    1.0850   -3.0210 C   0  0  0  0  0  0  0  0  0  0  0  0
   -7.6780    0.3970   -2.4790 C   0  0  0  0  0  0  0  0  0  0  0  0
   -0.0330   -0.2160    2.0370 H   0  0  0  0  0  0  0  0  0  0  0  0
   -2.8170   -0.2670   -2.4920 H   0  0  0  0  0  0  0  0  0  0  0  0
   -4.5060    0.5220    1.3190 H   0  0  0  0  0  0  0  0  0  0  0  0
   -2.2370    0.3650    2.3060 H   0  0  0  0  0  0  0  0  0  0  0  0
    0.7670    0.4840   -1.4850 H   0  0  0  0  0  0  0  0  0  0  0  0
    4.8580   -0.0540   -0.9220 H   0  0  0  0  0  0  0  0  0  0  0  0
   -4.5040    1.5380   -2.8420 H   0  0  0  0  0  0  0  0  0  0  0  0
   -6.1320   -1.0490    0.1700 H   0  0  0  0  0  0  0  0  0  0  0  0
    2.2140   -0.6590    2.3430 H   0  0  0  0  0  0  0  0  0  0  0  0
    4.5220   -0.6380    1.4330 H   0  0  0  0  0  0  0  0  0  0  0  0
   -8.3480   -0.9040   -0.9080 H   0  0  0  0  0  0  0  0  0  0  0  0
   -6.7240    1.6800   -3.9130 H   0  0  0  0  0  0  0  0  0  0  0  0
   -8.6480    0.4590   -2.9500 H   0  0  0  0  0  0  0  0  0  0  0  0
  1  2  1  0  0  0  0
  1  5  2  0  0  0  0
  2  3  1  0  0  0  0
  2  9  2  0  0  0  0
  3 10  1  0  0  0  0
  3 20  1  0  0  0  0
  4  5  1  0  0  0  0
  4  7  1  0  0  0  0
  4  8  2  0  0  0  0
  5 21  1  0  0  0  0
  6 11  2  0  0  0  0
  6 12  1  0  0  0  0
  7 13  1  0  0  0  0
  7 14  2  0  0  0  0
  8  9  1  0  0  0  0
  8 22  1  0  0  0  0
  9 23  1  0  0  0  0
 10 11  1  0  0  0  0
 10 15  2  0  0  0  0
 11 24  1  0  0  0  0
 12 16  2  0  0  0  0
 12 25  1  0  0  0  0
 13 18  2  0  0  0  0
 13 26  1  0  0  0  0
 14 17  1  0  0  0  0
 14 27  1  0  0  0  0
 15 16  1  0  0  0  0
 15 28  1  0  0  0  0
 16 29  1  0  0  0  0
 17 19  2  0  0  0  0
 17 30  1  0  0  0  0
 18 19  1  0  0  0  0
 18 31  1  0  0  0  0
 19 32  1  0  0  0  0
M  END
>  <$CLUSTER>
1

>  <INDEX>
1773

$$$$
Enamine T0509-1199
  MOE2020           3D

 25 26  0  0  0  0  0  0  0  0999 V2000
    0.5920    0.6870    0.8830 O   0  0  0  0  0  0  0  0  0  0  0  0
    0.0240   -0.2940    0.1230 C   0  0  0  0  0  0  0  0  0  0  0  0
   -1.7690   -5.4290    2.1360 C   0  0  0  0  0  0  0  0  0  0  0  0
   -0.5900   -2.5870    0.0390 N   0  0  0  0  0  0  0  0  0  0  0  0
    0.5680    1.8260    0.1430 C   0  0  0  0  0  0  0  0  0  0  0  0
   -0.3600    0.2230   -1.0980 C   0  0  0  0  0  0  0  0  0  0  0  0
   -1.7330   -4.1950    1.4830 C   0  0  0  0  0  0  0  0  0  0  0  0
   -0.0070    1.5940   -1.0830 C   0  0  0  0  0  0  0  0  0  0  0  0
   -0.0670   -1.6020    0.6900 C   0  0  0  0  0  0  0  0  0  0  0  0
   -0.7010   -6.3180    2.0070 C   0  0  0  0  0  0  0  0  0  0  0  0
   -0.6260   -3.8400    0.7040 C   0  0  0  0  0  0  0  0  0  0  0  0
    0.4000   -5.9770    1.2210 C   0  0  0  0  0  0  0  0  0  0  0  0
   -2.8590   -5.6800    2.8620 F   0  0  0  0  0  0  0  0  0  0  0  0
   -0.6540   -7.5110    2.6010 F   0  0  0  0  0  0  0  0  0  0  0  0
    0.4340   -4.7430    0.5670 C   0  0  0  0  0  0  0  0  0  0  0  0
    1.0880    3.0360    0.6530 C   0  0  0  0  0  0  0  0  0  0  0  0
   -0.8360   -0.3130   -1.9060 H   0  0  0  0  0  0  0  0  0  0  0  0
   -2.5640   -3.5110    1.5800 H   0  0  0  0  0  0  0  0  0  0  0  0
   -0.1590    2.3120   -1.8750 H   0  0  0  0  0  0  0  0  0  0  0  0
    0.3110   -1.7710    1.6870 H   0  0  0  0  0  0  0  0  0  0  0  0
    1.2250   -6.6660    1.1180 H   0  0  0  0  0  0  0  0  0  0  0  0
    1.2830   -4.4850   -0.0480 H   0  0  0  0  0  0  0  0  0  0  0  0
    1.4710    2.8710    1.6600 H   0  0  0  0  0  0  0  0  0  0  0  0
    0.2980    3.7870    0.6830 H   0  0  0  0  0  0  0  0  0  0  0  0
    1.8960    3.3840    0.0100 H   0  0  0  0  0  0  0  0  0  0  0  0
  1  2  1  0  0  0  0
  1  5  1  0  0  0  0
  2  6  2  0  0  0  0
  2  9  1  0  0  0  0
  3  7  2  0  0  0  0
  3 10  1  0  0  0  0
  3 13  1  0  0  0  0
  4  9  2  0  0  0  0
  4 11  1  0  0  0  0
  5  8  2  0  0  0  0
  5 16  1  0  0  0  0
  6  8  1  0  0  0  0
  6 17  1  0  0  0  0
  7 11  1  0  0  0  0
  7 18  1  0  0  0  0
  8 19  1  0  0  0  0
  9 20  1  0  0  0  0
 10 12  2  0  0  0  0
 10 14  1  0  0  0  0
 11 15  2  0  0  0  0
 12 15  1  0  0  0  0
 12 21  1  0  0  0  0
 15 22  1  0  0  0  0
 16 23  1  0  0  0  0
 16 24  1  0  0  0  0
 16 25  1  0  0  0  0
M  END
>  <$CLUSTER>
2

>  <INDEX>
419593

$$$$
Chembridge 6201046
  MOE2020           3D

 34 36  0  0  0  0  0  0  0  0999 V2000
   -1.7450    0.0140   -0.0890 N   0  3  0  0  0  0  0  0  0  0  0  0
   -0.3110    0.1990   -0.0300 C   0  0  0  0  0  0  0  0  0  0  0  0
    3.4000    3.4380   -0.1010 C   0  0  0  0  0  0  0  0  0  0  0  0
    0.2200    1.4900   -0.1130 C   0  0  0  0  0  0  0  0  0  0  0  0
    2.0830    3.0000   -0.1360 N   0  0  0  0  0  0  0  0  0  0  0  0
    3.4780    4.9390   -0.2210 C   0  0  0  0  0  0  0  0  0  0  0  0
    0.5150   -0.9100    0.1010 C   0  0  0  0  0  0  0  0  0  0  0  0
    4.6540    5.5470    0.3180 C   0  0  0  0  0  0  0  0  0  0  0  0
   -2.3810    0.7180   -0.8930 O   0  5  0  0  0  0  0  0  0  0  0  0
   -2.2610   -0.8170    0.6760 O   0  0  0  0  0  0  0  0  0  0  0  0
    1.6050    1.6560   -0.0510 C   0  0  0  0  0  0  0  0  0  0  0  0
    4.8200    6.9310    0.2280 C   0  0  0  0  0  0  0  0  0  0  0  0
    4.4180    2.7620    0.0090 O   0  0  0  0  0  0  0  0  0  0  0  0
    2.5480    5.7250   -0.8590 C   0  0  0  0  0  0  0  0  0  0  0  0
    3.8530    7.7110   -0.4010 C   0  0  0  0  0  0  0  0  0  0  0  0
    2.7200    7.1090   -0.9460 C   0  0  0  0  0  0  0  0  0  0  0  0
    1.8960   -0.7400    0.1620 C   0  0  0  0  0  0  0  0  0  0  0  0
    2.4400    0.5440    0.0870 C   0  0  0  0  0  0  0  0  0  0  0  0
    0.0210   -2.1550    0.1490 F   0  0  0  0  0  0  0  0  0  0  0  0
    5.9700    7.5380    0.7760 C   0  0  0  0  0  0  0  0  0  0  0  0
    4.0410    9.1090   -0.4940 C   0  0  0  0  0  0  0  0  0  0  0  0
    6.1430    8.9190    0.6830 C   0  0  0  0  0  0  0  0  0  0  0  0
    5.1810    9.7020    0.0490 C   0  0  0  0  0  0  0  0  0  0  0  0
   -0.4310    2.3450   -0.2230 H   0  0  0  0  0  0  0  0  0  0  0  0
    1.3780    3.7170   -0.2330 H   0  0  0  0  0  0  0  0  0  0  0  0
    5.4100    4.9390    0.7920 H   0  0  0  0  0  0  0  0  0  0  0  0
    1.6740    5.2670   -1.2980 H   0  0  0  0  0  0  0  0  0  0  0  0
    1.9730    7.7140   -1.4370 H   0  0  0  0  0  0  0  0  0  0  0  0
    2.5440   -1.5980    0.2670 H   0  0  0  0  0  0  0  0  0  0  0  0
    3.5110    0.6780    0.1360 H   0  0  0  0  0  0  0  0  0  0  0  0
    6.7170    6.9330    1.2680 H   0  0  0  0  0  0  0  0  0  0  0  0
    3.3000    9.7200   -0.9870 H   0  0  0  0  0  0  0  0  0  0  0  0
    7.0240    9.3820    1.1030 H   0  0  0  0  0  0  0  0  0  0  0  0
    5.3180   10.7710   -0.0220 H   0  0  0  0  0  0  0  0  0  0  0  0
  1  2  1  0  0  0  0
  1  9  1  0  0  0  0
  1 10  2  0  0  0  0
  2  4  2  0  0  0  0
  2  7  1  0  0  0  0
  3  5  1  0  0  0  0
  3  6  1  0  0  0  0
  3 13  2  0  0  0  0
  4 11  1  0  0  0  0
  4 24  1  0  0  0  0
  5 11  1  0  0  0  0
  5 25  1  0  0  0  0
  6  8  2  0  0  0  0
  6 14  1  0  0  0  0
  7 17  2  0  0  0  0
  7 19  1  0  0  0  0
  8 12  1  0  0  0  0
  8 26  1  0  0  0  0
 11 18  2  0  0  0  0
 12 15  2  0  0  0  0
 12 20  1  0  0  0  0
 14 16  2  0  0  0  0
 14 27  1  0  0  0  0
 15 16  1  0  0  0  0
 15 21  1  0  0  0  0
 16 28  1  0  0  0  0
 17 18  1  0  0  0  0
 17 29  1  0  0  0  0
 18 30  1  0  0  0  0
 20 22  2  0  0  0  0
 20 31  1  0  0  0  0
 21 23  2  0  0  0  0
 21 32  1  0  0  0  0
 22 23  1  0  0  0  0
 22 33  1  0  0  0  0
 23 34  1  0  0  0  0
M  CHG  1   1   1
M  CHG  1   9  -1
M  END
>  <$CLUSTER>
3

>  <INDEX>
60182

$$$$
Biofocus 190_4347_4140
  MOE2020           3D

 44 46  0  0  0  0  0  0  0  0999 V2000
    0.8330    1.4500    0.4800 N   0  0  0  0  0  0  0  0  0  0  0  0
    0.3760    2.4370    1.3260 C   0  0  0  0  0  0  0  0  0  0  0  0
   -0.7790    2.1480    1.8720 N   0  0  0  0  0  0  0  0  0  0  0  0
   -0.1340    0.4610    0.4630 C   0  0  0  0  0  0  0  0  0  0  0  0
   -1.0960    0.9200    1.3500 C   0  0  0  0  0  0  0  0  0  0  0  0
    1.1740    3.6300    1.5450 C   0  0  0  0  0  0  0  0  0  0  0  0
    2.3520    3.6950    0.8990 N   0  3  0  0  0  0  0  0  0  0  0  0
   -0.0850   -0.7790   -0.3090 C   0  0  0  0  0  0  0  0  0  0  0  0
    2.0640    1.5750   -0.1530 C   0  0  0  0  0  0  0  0  0  0  0  0
    2.7970    2.6780    0.0600 C   0  0  0  0  0  0  0  0  0  0  0  0
   -0.2760   -2.0120    0.3320 C   0  0  0  0  0  0  0  0  0  0  0  0
    0.6700    4.5510    2.3660 N   0  0  0  0  0  0  0  0  0  0  0  0
   -0.2440   -3.2020   -0.3990 C   0  0  0  0  0  0  0  0  0  0  0  0
    0.1200   -0.7600   -1.6950 C   0  0  0  0  0  0  0  0  0  0  0  0
    2.2860    5.6030    3.8500 C   0  0  0  0  0  0  0  0  0  0  0  0
   -0.4120   -4.4640    0.1310 O   0  0  0  0  0  0  0  0  0  0  0  0
    0.1510   -1.9520   -2.4230 C   0  0  0  0  0  0  0  0  0  0  0  0
    3.8700    6.6450    5.3210 O   0  0  0  0  0  0  0  0  0  0  0  0
    1.3310    5.8220    2.6960 C   0  0  0  0  0  0  0  0  0  0  0  0
    2.9890    6.9120    4.2330 C   0  0  0  0  0  0  0  0  0  0  0  0
   -0.0290   -3.1720   -1.7750 C   0  0  0  0  0  0  0  0  0  0  0  0
   -0.6320   -4.5540    1.5340 C   0  0  0  0  0  0  0  0  0  0  0  0
    4.5580    7.8170    5.7290 C   0  0  0  0  0  0  0  0  0  0  0  0
   -1.9930    0.3730    1.6010 H   0  0  0  0  0  0  0  0  0  0  0  0
    2.9340    4.5100    1.0270 H   0  0  0  0  0  0  0  0  0  0  0  0
    2.4250    0.7950   -0.8070 H   0  0  0  0  0  0  0  0  0  0  0  0
    3.7540    2.7790   -0.4310 H   0  0  0  0  0  0  0  0  0  0  0  0
   -0.4490   -2.0420    1.3980 H   0  0  0  0  0  0  0  0  0  0  0  0
   -0.2270    4.3630    2.7900 H   0  0  0  0  0  0  0  0  0  0  0  0
    0.2550    0.1830   -2.2040 H   0  0  0  0  0  0  0  0  0  0  0  0
    3.0350    4.8670    3.5590 H   0  0  0  0  0  0  0  0  0  0  0  0
    1.7280    5.2320    4.7100 H   0  0  0  0  0  0  0  0  0  0  0  0
    0.3150   -1.9280   -3.4900 H   0  0  0  0  0  0  0  0  0  0  0  0
    0.5810    6.5600    2.9790 H   0  0  0  0  0  0  0  0  0  0  0  0
    1.8840    6.1810    1.8280 H   0  0  0  0  0  0  0  0  0  0  0  0
    2.2490    7.6540    4.5320 H   0  0  0  0  0  0  0  0  0  0  0  0
    3.5570    7.2880    3.3820 H   0  0  0  0  0  0  0  0  0  0  0  0
   -0.0020   -4.0930   -2.3380 H   0  0  0  0  0  0  0  0  0  0  0  0
   -0.7470   -5.6000    1.8170 H   0  0  0  0  0  0  0  0  0  0  0  0
   -1.5360   -4.0050    1.7960 H   0  0  0  0  0  0  0  0  0  0  0  0
    0.2190   -4.1260    2.0630 H   0  0  0  0  0  0  0  0  0  0  0  0
    5.2210    7.5780    6.5600 H   0  0  0  0  0  0  0  0  0  0  0  0
    3.8360    8.5700    6.0450 H   0  0  0  0  0  0  0  0  0  0  0  0
    5.1450    8.2030    4.8950 H   0  0  0  0  0  0  0  0  0  0  0  0
  1  2  1  0  0  0  0
  1  4  1  0  0  0  0
  1  9  1  0  0  0  0
  2  3  2  0  0  0  0
  2  6  1  0  0  0  0
  3  5  1  0  0  0  0
  4  5  2  0  0  0  0
  4  8  1  0  0  0  0
  5 24  1  0  0  0  0
  6  7  2  0  0  0  0
  6 12  1  0  0  0  0
  7 10  1  0  0  0  0
  7 25  1  0  0  0  0
  8 11  2  0  0  0  0
  8 14  1  0  0  0  0
  9 10  2  0  0  0  0
  9 26  1  0  0  0  0
 10 27  1  0  0  0  0
 11 13  1  0  0  0  0
 11 28  1  0  0  0  0
 12 19  1  0  0  0  0
 12 29  1  0  0  0  0
 13 16  1  0  0  0  0
 13 21  2  0  0  0  0
 14 17  2  0  0  0  0
 14 30  1  0  0  0  0
 15 19  1  0  0  0  0
 15 20  1  0  0  0  0
 15 31  1  0  0  0  0
 15 32  1  0  0  0  0
 16 22  1  0  0  0  0
 17 21  1  0  0  0  0
 17 33  1  0  0  0  0
 18 20  1  0  0  0  0
 18 23  1  0  0  0  0
 19 34  1  0  0  0  0
 19 35  1  0  0  0  0
 20 36  1  0  0  0  0
 20 37  1  0  0  0  0
 21 38  1  0  0  0  0
 22 39  1  0  0  0  0
 22 40  1  0  0  0  0
 22 41  1  0  0  0  0
 23 42  1  0  0  0  0
 23 43  1  0  0  0  0
 23 44  1  0  0  0  0
M  CHG  1   7   1
M  END
>  <$CLUSTER>
4

>  <INDEX>
18139

$$$$
ASDI 100027720
  MOE2020           3D

 24 24  0  0  0  0  0  0  0  0999 V2000
   -0.5760    0.8660    0.4280 C   0  0  0  0  0  0  0  0  0  0  0  0
    1.3700   -0.2280   -0.4320 N   0  0  0  0  0  0  0  0  0  0  0  0
    0.6050   -1.3940   -0.6040 C   0  0  0  0  0  0  0  0  0  0  0  0
    0.8680    0.9650    0.0800 C   0  0  0  0  0  0  0  0  0  0  0  0
   -1.3070   -0.1800    0.2860 N   0  0  0  0  0  0  0  0  0  0  0  0
   -0.7340   -1.3030   -0.2230 N   0  0  0  0  0  0  0  0  0  0  0  0
   -1.1110    2.3890    1.0550 S   0  0  0  0  0  0  0  0  0  0  0  0
   -2.8490    2.0410    1.3990 C   0  0  0  0  0  0  0  0  0  0  0  0
    1.0920   -2.4330   -1.0630 O   0  0  0  0  0  0  0  0  0  0  0  0
    1.5070    2.0000    0.2430 O   0  0  0  0  0  0  0  0  0  0  0  0
   -3.6840    2.2230    0.4400 N   0  3  0  0  0  0  0  0  0  0  0  0
    2.7740   -0.2870   -0.8200 C   0  0  0  0  0  0  0  0  0  0  0  0
   -3.1300    1.5470    2.5520 N   0  0  0  0  0  0  0  0  0  0  0  0
   -1.6390   -2.4350   -0.3480 C   0  0  0  0  0  0  0  0  0  0  0  0
   -4.6540    1.9700    0.5600 H   0  0  0  0  0  0  0  0  0  0  0  0
   -3.3700    2.6190   -0.4340 H   0  0  0  0  0  0  0  0  0  0  0  0
    3.0050   -1.2830   -1.1980 H   0  0  0  0  0  0  0  0  0  0  0  0
    3.4000   -0.0730    0.0460 H   0  0  0  0  0  0  0  0  0  0  0  0
    2.9670    0.4510   -1.5990 H   0  0  0  0  0  0  0  0  0  0  0  0
   -4.0760    1.2650    2.7630 H   0  0  0  0  0  0  0  0  0  0  0  0
   -2.4040    1.4410    3.2460 H   0  0  0  0  0  0  0  0  0  0  0  0
   -1.1000   -3.2870   -0.7620 H   0  0  0  0  0  0  0  0  0  0  0  0
   -2.4630   -2.1700   -1.0110 H   0  0  0  0  0  0  0  0  0  0  0  0
   -2.0320   -2.6960    0.6340 H   0  0  0  0  0  0  0  0  0  0  0  0
  1  4  1  0  0  0  0
  1  5  2  0  0  0  0
  1  7  1  0  0  0  0
  2  3  1  0  0  0  0
  2  4  1  0  0  0  0
  2 12  1  0  0  0  0
  3  6  1  0  0  0  0
  3  9  2  0  0  0  0
  4 10  2  0  0  0  0
  5  6  1  0  0  0  0
  6 14  1  0  0  0  0
  7  8  1  0  0  0  0
  8 11  2  0  0  0  0
  8 13  1  0  0  0  0
 11 15  1  0  0  0  0
 11 16  1  0  0  0  0
 12 17  1  0  0  0  0
 12 18  1  0  0  0  0
 12 19  1  0  0  0  0
 13 20  1  0  0  0  0
 13 21  1  0  0  0  0
 14 22  1  0  0  0  0
 14 23  1  0  0  0  0
 14 24  1  0  0  0  0
M  CHG  1  11   1
M  END
>  <$CLUSTER>
5

>  <INDEX>
3708

$$$$
Sigma-Aldrich (SALOR) S643106
  MOE2020           3D

 36 40  0  0  1  0  0  0  0  0999 V2000
    0.9320   -0.6040    0.9330 C   0  0  0  0  0  0  0  0  0  0  0  0
   -1.0980    0.5570   -0.2920 C   0  0  0  0  0  0  0  0  0  0  0  0
   -0.4400    1.5490    0.7120 C   0  0  3  0  0  0  0  0  0  0  0  0
    0.7290    0.8450    1.4820 C   0  0  3  0  0  0  0  0  0  0  0  0
    1.1000   -0.5290   -0.5790 C   0  0  0  0  0  0  0  0  0  0  0  0
    0.0040    0.0820   -1.2420 C   0  0  0  0  0  0  0  0  0  0  0  0
   -1.5080   -0.6550    0.5420 C   0  0  0  0  0  0  0  0  0  0  0  0
   -0.4140   -1.2900    1.1930 C   0  0  0  0  0  0  0  0  0  0  0  0
    0.2420    2.7120    0.0240 C   0  0  0  0  0  0  0  0  0  0  0  0
    1.9390    1.7780    1.3930 C   0  0  0  0  0  0  0  0  0  0  0  0
    1.7360    2.6930    0.1950 C   0  0  0  0  0  0  0  0  0  0  0  0
   -0.3510    3.5450   -0.6500 O   0  0  0  0  0  0  0  0  0  0  0  0
    2.1840   -1.0080   -1.3000 C   0  0  0  0  0  0  0  0  0  0  0  0
   -0.0040    0.2140   -2.6230 C   0  0  0  0  0  0  0  0  0  0  0  0
   -2.7960   -1.1490    0.6800 C   0  0  0  0  0  0  0  0  0  0  0  0
   -0.6140   -2.4150    1.9790 C   0  0  0  0  0  0  0  0  0  0  0  0
   -1.9130   -2.9080    2.1160 C   0  0  0  0  0  0  0  0  0  0  0  0
    2.1750   -0.8710   -2.6900 C   0  0  0  0  0  0  0  0  0  0  0  0
    1.0910   -0.2660   -3.3450 C   0  0  0  0  0  0  0  0  0  0  0  0
   -2.9930   -2.2810    1.4730 C   0  0  0  0  0  0  0  0  0  0  0  0
    1.7870   -1.1080    1.3830 H   0  0  0  0  0  0  0  0  0  0  0  0
   -1.9310    1.0020   -0.8360 H   0  0  0  0  0  0  0  0  0  0  0  0
   -1.2560    1.8840    1.3530 H   0  0  0  0  0  0  0  0  0  0  0  0
    0.5240    0.6900    2.5410 H   0  0  0  0  0  0  0  0  0  0  0  0
    2.8490    1.1930    1.2620 H   0  0  0  0  0  0  0  0  0  0  0  0
    2.0170    2.3720    2.3040 H   0  0  0  0  0  0  0  0  0  0  0  0
    2.1190    3.6930    0.3980 H   0  0  0  0  0  0  0  0  0  0  0  0
    2.2250    2.2900   -0.6920 H   0  0  0  0  0  0  0  0  0  0  0  0
    3.0170   -1.4770   -0.7970 H   0  0  0  0  0  0  0  0  0  0  0  0
   -0.8380    0.6780   -3.1280 H   0  0  0  0  0  0  0  0  0  0  0  0
   -3.6280   -0.6690    0.1860 H   0  0  0  0  0  0  0  0  0  0  0  0
    0.2160   -2.8980    2.4730 H   0  0  0  0  0  0  0  0  0  0  0  0
   -2.0900   -3.7830    2.7240 H   0  0  0  0  0  0  0  0  0  0  0  0
    3.0120   -1.2350   -3.2680 H   0  0  0  0  0  0  0  0  0  0  0  0
    1.1040   -0.1700   -4.4210 H   0  0  0  0  0  0  0  0  0  0  0  0
   -3.9890   -2.6800    1.5940 H   0  0  0  0  0  0  0  0  0  0  0  0
  1  4  1  0  0  0  0
  1  5  1  0  0  0  0
  1  8  1  0  0  0  0
  1 21  1  0  0  0  0
  2  3  1  0  0  0  0
  2  6  1  0  0  0  0
  2  7  1  0  0  0  0
  2 22  1  0  0  0  0
  3  4  1  0  0  0  0
  3  9  1  0  0  0  0
  3 23  1  0  0  0  0
  4 10  1  0  0  0  0
  4 24  1  0  0  0  0
  5  6  2  0  0  0  0
  5 13  1  0  0  0  0
  6 14  1  0  0  0  0
  7  8  2  0  0  0  0
  7 15  1  0  0  0  0
  8 16  1  0  0  0  0
  9 11  1  0  0  0  0
  9 12  2  0  0  0  0
 10 11  1  0  0  0  0
 10 25  1  0  0  0  0
 10 26  1  0  0  0  0
 11 27  1  0  0  0  0
 11 28  1  0  0  0  0
 13 18  2  0  0  0  0
 13 29  1  0  0  0  0
 14 19  2  0  0  0  0
 14 30  1  0  0  0  0
 15 20  2  0  0  0  0
 15 31  1  0  0  0  0
 16 17  2  0  0  0  0
 16 32  1  0  0  0  0
 17 20  1  0  0  0  0
 17 33  1  0  0  0  0
 18 19  1  0  0  0  0
 18 34  1  0  0  0  0
 19 35  1  0  0  0  0
 20 36  1  0  0  0  0
M  END
>  <$CLUSTER>
6

>  <INDEX>
622401

$$$$
Chembridge 5143016
  MOE2020           3D

 41 42  0  0  1  0  0  0  0  0999 V2000
   -0.8410   -0.3770   -0.9100 C   0  0  3  0  0  0  0  0  0  0  0  0
    0.2190   -0.4810    0.0560 N   0  0  0  0  0  0  0  0  0  0  0  0
   -0.9540   -1.6930   -1.5040 N   0  0  0  0  0  0  0  0  0  0  0  0
    0.9410    0.5270    0.6230 C   0  0  0  0  0  0  0  0  0  0  0  0
   -2.1670    0.0160   -0.2650 C   0  0  0  0  0  0  0  0  0  0  0  0
   -1.5070   -1.9340   -2.7250 C   0  0  0  0  0  0  0  0  0  0  0  0
    0.6700    1.7980    0.2450 N   0  0  0  0  0  0  0  0  0  0  0  0
    2.1300    0.2090    1.7540 S   0  0  0  0  0  0  0  0  0  0  0  0
   -1.4790   -3.3890   -3.1090 C   0  0  0  0  0  0  0  0  0  0  0  0
   -1.9950   -1.0710   -3.4530 O   0  0  0  0  0  0  0  0  0  0  0  0
   -2.0740    1.7420    0.4760 Cl  0  0  0  0  0  0  0  0  0  0  0  0
   -2.8450   -1.0160    1.0550 Cl  0  0  0  0  0  0  0  0  0  0  0  0
   -3.5440    0.2000   -1.5100 Cl  0  0  0  0  0  0  0  0  0  0  0  0
   -2.4630   -3.7960   -4.0530 C   0  0  0  0  0  0  0  0  0  0  0  0
   -0.5440   -4.2810   -2.6640 C   0  0  0  0  0  0  0  0  0  0  0  0
    1.0230    3.1140    0.4380 C   0  0  0  0  0  0  0  0  0  0  0  0
   -2.4890   -5.1260   -4.4800 C   0  0  0  0  0  0  0  0  0  0  0  0
   -0.5740   -5.6100   -3.0950 C   0  0  0  0  0  0  0  0  0  0  0  0
   -1.5460   -6.0320   -4.0000 C   0  0  0  0  0  0  0  0  0  0  0  0
   -1.5790   -7.4540   -4.4560 C   0  0  0  0  0  0  0  0  0  0  0  0
    2.0280    3.4950    1.3280 C   0  0  0  0  0  0  0  0  0  0  0  0
    0.3560    4.1240   -0.2790 C   0  0  0  0  0  0  0  0  0  0  0  0
    0.6850    5.4730   -0.1100 C   0  0  0  0  0  0  0  0  0  0  0  0
    2.3600    4.8450    1.4990 C   0  0  0  0  0  0  0  0  0  0  0  0
    1.6910    5.8340    0.7820 C   0  0  0  0  0  0  0  0  0  0  0  0
   -0.6160    0.3980   -1.6430 H   0  0  0  0  0  0  0  0  0  0  0  0
    0.4580   -1.4170    0.3510 H   0  0  0  0  0  0  0  0  0  0  0  0
   -0.6010   -2.4810   -0.9800 H   0  0  0  0  0  0  0  0  0  0  0  0
   -0.0740    1.7700   -0.4380 H   0  0  0  0  0  0  0  0  0  0  0  0
   -3.1810   -3.0850   -4.4350 H   0  0  0  0  0  0  0  0  0  0  0  0
    0.2220   -3.9570   -1.9750 H   0  0  0  0  0  0  0  0  0  0  0  0
   -3.2410   -5.4520   -5.1830 H   0  0  0  0  0  0  0  0  0  0  0  0
    0.1590   -6.3120   -2.7250 H   0  0  0  0  0  0  0  0  0  0  0  0
   -2.4030   -7.5920   -5.1560 H   0  0  0  0  0  0  0  0  0  0  0  0
   -1.7200   -8.1080   -3.5960 H   0  0  0  0  0  0  0  0  0  0  0  0
   -0.6380   -7.7000   -4.9490 H   0  0  0  0  0  0  0  0  0  0  0  0
    2.5560    2.7400    1.8920 H   0  0  0  0  0  0  0  0  0  0  0  0
   -0.4250    3.8530   -0.9730 H   0  0  0  0  0  0  0  0  0  0  0  0
    0.1600    6.2330   -0.6700 H   0  0  0  0  0  0  0  0  0  0  0  0
    3.1410    5.1210    2.1920 H   0  0  0  0  0  0  0  0  0  0  0  0
    1.9510    6.8740    0.9170 H   0  0  0  0  0  0  0  0  0  0  0  0
  1  2  1  0  0  0  0
  1  3  1  0  0  0  0
  1  5  1  0  0  0  0
  1 26  1  0  0  0  0
  2  4  1  0  0  0  0
  2 27  1  0  0  0  0
  3  6  1  0  0  0  0
  3 28  1  0  0  0  0
  4  7  1  0  0  0  0
  4  8  2  0  0  0  0
  5 11  1  0  0  0  0
  5 12  1  0  0  0  0
  5 13  1  0  0  0  0
  6  9  1  0  0  0  0
  6 10  2  0  0  0  0
  7 16  1  0  0  0  0
  7 29  1  0  0  0  0
  9 14  2  0  0  0  0
  9 15  1  0  0  0  0
 14 17  1  0  0  0  0
 14 30  1  0  0  0  0
 15 18  2  0  0  0  0
 15 31  1  0  0  0  0
 16 21  1  0  0  0  0
 16 22  2  0  0  0  0
 17 19  2  0  0  0  0
 17 32  1  0  0  0  0
 18 19  1  0  0  0  0
 18 33  1  0  0  0  0
 19 20  1  0  0  0  0
 20 34  1  0  0  0  0
 20 35  1  0  0  0  0
 20 36  1  0  0  0  0
 21 24  2  0  0  0  0
 21 37  1  0  0  0  0
 22 23  1  0  0  0  0
 22 38  1  0  0  0  0
 23 25  2  0  0  0  0
 23 39  1  0  0  0  0
 24 25  1  0  0  0  0
 24 40  1  0  0  0  0
 25 41  1  0  0  0  0
M  END
>  <$CLUSTER>
7

>  <INDEX>
37214

$$$$
Specs AG-690/11739215
  MOE2020           3D

 44 46  0  0  1  0  0  0  0  0999 V2000
   -0.9340    0.8430    0.2360 C   0  0  0  0  0  0  0  0  0  0  0  0
   -0.7560    1.9780   -0.7000 C   0  0  0  0  0  0  0  0  0  0  0  0
   -2.1580    0.3830    0.5460 C   0  0  0  0  0  0  0  0  0  0  0  0
    0.3280    0.2830    0.8460 C   0  0  3  0  0  0  0  0  0  0  0  0
   -1.2290   -1.2470    2.1210 C   0  0  0  0  0  0  0  0  0  0  0  0
   -2.2790   -0.6490    1.4520 N   0  0  0  0  0  0  0  0  0  0  0  0
    0.0270   -0.7560    1.8300 N   0  0  0  0  0  0  0  0  0  0  0  0
   -1.1250    1.6930   -1.9950 N   0  0  0  0  0  0  0  0  0  0  0  0
    1.3030   -0.2480   -0.1910 C   0  0  0  0  0  0  0  0  0  0  0  0
   -0.2720    3.0410   -0.3310 O   0  0  0  0  0  0  0  0  0  0  0  0
   -1.4040   -2.1560    2.9350 O   0  0  0  0  0  0  0  0  0  0  0  0
    0.9980   -1.3780   -0.9670 C   0  0  0  0  0  0  0  0  0  0  0  0
    2.5270    0.4040   -0.4010 C   0  0  0  0  0  0  0  0  0  0  0  0
   -1.0990    2.4950   -3.1490 C   0  0  0  0  0  0  0  0  0  0  0  0
   -3.4660    0.9110    0.0280 C   0  0  0  0  0  0  0  0  0  0  0  0
   -1.0940    3.9880   -5.5290 C   0  0  0  0  0  0  0  0  0  0  0  0
    3.1130   -1.1900   -2.1220 C   0  0  0  0  0  0  0  0  0  0  0  0
    3.4260   -0.0660   -1.3610 C   0  0  0  0  0  0  0  0  0  0  0  0
    1.8990   -1.8460   -1.9260 C   0  0  0  0  0  0  0  0  0  0  0  0
   -1.0920    4.8900   -6.9720 Cl  0  0  0  0  0  0  0  0  0  0  0  0
   -0.6300    3.8120   -3.1570 C   0  0  0  0  0  0  0  0  0  0  0  0
   -1.5650    1.9360   -4.3480 C   0  0  0  0  0  0  0  0  0  0  0  0
   -1.5630    2.6780   -5.5310 C   0  0  0  0  0  0  0  0  0  0  0  0
   -0.6290    4.5530   -4.3430 C   0  0  0  0  0  0  0  0  0  0  0  0
    4.0780   -1.5520   -3.0330 O   0  0  0  0  0  0  0  0  0  0  0  0
    3.8070   -2.6940   -3.8370 C   0  0  0  0  0  0  0  0  0  0  0  0
    0.8140    1.1200    1.3480 H   0  0  0  0  0  0  0  0  0  0  0  0
   -3.2090   -0.9950    1.6410 H   0  0  0  0  0  0  0  0  0  0  0  0
    0.8050   -1.1480    2.3400 H   0  0  0  0  0  0  0  0  0  0  0  0
   -1.4710    0.7550   -2.1400 H   0  0  0  0  0  0  0  0  0  0  0  0
    0.0580   -1.8900   -0.8210 H   0  0  0  0  0  0  0  0  0  0  0  0
    2.7760    1.2770    0.1840 H   0  0  0  0  0  0  0  0  0  0  0  0
   -4.2860    0.3360    0.4580 H   0  0  0  0  0  0  0  0  0  0  0  0
   -3.4900    0.8210   -1.0580 H   0  0  0  0  0  0  0  0  0  0  0  0
   -3.5710    1.9590    0.3080 H   0  0  0  0  0  0  0  0  0  0  0  0
    4.3660    0.4430   -1.5140 H   0  0  0  0  0  0  0  0  0  0  0  0
    1.6550   -2.7170   -2.5160 H   0  0  0  0  0  0  0  0  0  0  0  0
   -0.2670    4.2590   -2.2430 H   0  0  0  0  0  0  0  0  0  0  0  0
   -1.9300    0.9190   -4.3560 H   0  0  0  0  0  0  0  0  0  0  0  0
   -1.9250    2.2350   -6.4470 H   0  0  0  0  0  0  0  0  0  0  0  0
   -0.2650    5.5700   -4.3400 H   0  0  0  0  0  0  0  0  0  0  0  0
    4.6450   -2.8710   -4.5110 H   0  0  0  0  0  0  0  0  0  0  0  0
    2.9020   -2.5220   -4.4200 H   0  0  0  0  0  0  0  0  0  0  0  0
    3.6660   -3.5640   -3.1960 H   0  0  0  0  0  0  0  0  0  0  0  0
  1  2  1  0  0  0  0
  1  3  2  0  0  0  0
  1  4  1  0  0  0  0
  2  8  1  0  0  0  0
  2 10  2  0  0  0  0
  3  6  1  0  0  0  0
  3 15  1  0  0  0  0
  4  7  1  0  0  0  0
  4  9  1  0  0  0  0
  4 27  1  0  0  0  0
  5  6  1  0  0  0  0
  5  7  1  0  0  0  0
  5 11  2  0  0  0  0
  6 28  1  0  0  0  0
  7 29  1  0  0  0  0
  8 14  1  0  0  0  0
  8 30  1  0  0  0  0
  9 12  1  0  0  0  0
  9 13  2  0  0  0  0
 12 19  2  0  0  0  0
 12 31  1  0  0  0  0
 13 18  1  0  0  0  0
 13 32  1  0  0  0  0
 14 21  1  0  0  0  0
 14 22  2  0  0  0  0
 15 33  1  0  0  0  0
 15 34  1  0  0  0  0
 15 35  1  0  0  0  0
 16 20  1  0  0  0  0
 16 23  2  0  0  0  0
 16 24  1  0  0  0  0
 17 18  2  0  0  0  0
 17 19  1  0  0  0  0
 17 25  1  0  0  0  0
 18 36  1  0  0  0  0
 19 37  1  0  0  0  0
 21 24  2  0  0  0  0
 21 38  1  0  0  0  0
 22 23  1  0  0  0  0
 22 39  1  0  0  0  0
 23 40  1  0  0  0  0
 24 41  1  0  0  0  0
 25 26  1  0  0  0  0
 26 42  1  0  0  0  0
 26 43  1  0  0  0  0
 26 44  1  0  0  0  0
M  END
>  <$CLUSTER>
8

>  <INDEX>
495651

$$$$
Maybridge SP 00835
  MOE2020           3D

 31 33  0  0  0  0  0  0  0  0999 V2000
    0.0130   -1.1510   -1.7590 N   0  0  0  0  0  0  0  0  0  0  0  0
   -0.4080   -0.3290   -0.7540 N   0  0  0  0  0  0  0  0  0  0  0  0
   -1.5670    0.3460   -1.1290 C   0  0  0  0  0  0  0  0  0  0  0  0
   -1.7600    0.0810   -2.4660 C   0  0  0  0  0  0  0  0  0  0  0  0
   -0.7710   -0.8510   -2.7930 C   0  0  0  0  0  0  0  0  0  0  0  0
    0.3510   -0.2720    0.4510 C   0  0  0  0  0  0  0  0  0  0  0  0
   -0.5580   -1.5220   -4.1050 C   0  0  0  0  0  0  0  0  0  0  0  0
   -2.3490    1.0570   -0.2970 N   0  0  0  0  0  0  0  0  0  0  0  0
    0.2840    0.8280    1.3130 C   0  0  0  0  0  0  0  0  0  0  0  0
    1.2300   -1.3250    0.7560 C   0  0  0  0  0  0  0  0  0  0  0  0
   -1.3360   -1.1740   -5.2210 C   0  0  0  0  0  0  0  0  0  0  0  0
    0.4280   -2.5120   -4.2640 C   0  0  0  0  0  0  0  0  0  0  0  0
    1.9040   -0.2040    2.7890 C   0  0  0  0  0  0  0  0  0  0  0  0
   -0.1550   -2.7760   -6.5970 C   0  0  0  0  0  0  0  0  0  0  0  0
    1.9960   -1.2910    1.9240 C   0  0  0  0  0  0  0  0  0  0  0  0
   -1.1340   -1.7970   -6.4560 C   0  0  0  0  0  0  0  0  0  0  0  0
    0.6260   -3.1330   -5.5000 C   0  0  0  0  0  0  0  0  0  0  0  0
    1.0550    0.8550    2.4800 C   0  0  0  0  0  0  0  0  0  0  0  0
    2.6590   -0.2560    3.8860 F   0  0  0  0  0  0  0  0  0  0  0  0
    0.0760   -3.5250   -8.1060 Cl  0  0  0  0  0  0  0  0  0  0  0  0
   -2.5110    0.5010   -3.1190 H   0  0  0  0  0  0  0  0  0  0  0  0
   -3.2020    1.4750   -0.6400 H   0  0  0  0  0  0  0  0  0  0  0  0
   -2.0830    1.1720    0.6710 H   0  0  0  0  0  0  0  0  0  0  0  0
   -0.3650    1.6590    1.0770 H   0  0  0  0  0  0  0  0  0  0  0  0
    1.3140   -2.1660    0.0830 H   0  0  0  0  0  0  0  0  0  0  0  0
   -2.0990   -0.4160   -5.1240 H   0  0  0  0  0  0  0  0  0  0  0  0
    1.0400   -2.7960   -3.4200 H   0  0  0  0  0  0  0  0  0  0  0  0
    2.6610   -2.1100    2.1560 H   0  0  0  0  0  0  0  0  0  0  0  0
   -1.7410   -1.5170   -7.3050 H   0  0  0  0  0  0  0  0  0  0  0  0
    1.3870   -3.8920   -5.6050 H   0  0  0  0  0  0  0  0  0  0  0  0
    0.9910    1.7030    3.1460 H   0  0  0  0  0  0  0  0  0  0  0  0
  1  2  1  0  0  0  0
  1  5  2  0  0  0  0
  2  3  1  0  0  0  0
  2  6  1  0  0  0  0
  3  4  2  0  0  0  0
  3  8  1  0  0  0  0
  4  5  1  0  0  0  0
  4 21  1  0  0  0  0
  5  7  1  0  0  0  0
  6  9  1  0  0  0  0
  6 10  2  0  0  0  0
  7 11  2  0  0  0  0
  7 12  1  0  0  0  0
  8 22  1  0  0  0  0
  8 23  1  0  0  0  0
  9 18  2  0  0  0  0
  9 24  1  0  0  0  0
 10 15  1  0  0  0  0
 10 25  1  0  0  0  0
 11 16  1  0  0  0  0
 11 26  1  0  0  0  0
 12 17  2  0  0  0  0
 12 27  1  0  0  0  0
 13 15  2  0  0  0  0
 13 18  1  0  0  0  0
 13 19  1  0  0  0  0
 14 16  2  0  0  0  0
 14 17  1  0  0  0  0
 14 20  1  0  0  0  0
 15 28  1  0  0  0  0
 16 29  1  0  0  0  0
 17 30  1  0  0  0  0
 18 31  1  0  0  0  0
M  END
>  <$CLUSTER>
9

>  <INDEX>
636539

$$$$
ASDI 100083437
  MOE2020           3D

 38 40  0  0  0  0  0  0  0  0999 V2000
    2.9730   -0.8020    0.2860 C   0  0  0  0  0  0  0  0  0  0  0  0
    1.2230    1.3570   -0.0630 N   0  0  0  0  0  0  0  0  0  0  0  0
    3.4720    0.4910    0.1810 C   0  0  0  0  0  0  0  0  0  0  0  0
    0.7370    0.0810    0.0410 C   0  0  0  0  0  0  0  0  0  0  0  0
    1.5960   -1.0120    0.2160 C   0  0  0  0  0  0  0  0  0  0  0  0
    2.5680    1.5290    0.0090 C   0  0  0  0  0  0  0  0  0  0  0  0
    3.8080   -1.9730    0.5080 C   0  0  0  0  0  0  0  0  0  0  0  0
   -0.7370   -0.0810   -0.0410 C   0  0  0  0  0  0  0  0  0  0  0  0
    4.8730    0.8110    0.2180 C   0  0  0  0  0  0  0  0  0  0  0  0
   -1.2230   -1.3570    0.0630 N   0  0  0  0  0  0  0  0  0  0  0  0
    4.7450   -2.0400    1.2870 O   0  0  0  0  0  0  0  0  0  0  0  0
    3.0320    2.8550   -0.1080 C   0  0  0  0  0  0  0  0  0  0  0  0
    5.3140    2.1270    0.1000 C   0  0  0  0  0  0  0  0  0  0  0  0
    3.4250   -2.9900   -0.2830 O   0  0  0  0  0  0  0  0  0  0  0  0
    4.3930    3.1520   -0.0610 C   0  0  0  0  0  0  0  0  0  0  0  0
   -2.5680   -1.5290   -0.0100 C   0  0  0  0  0  0  0  0  0  0  0  0
   -1.5960    1.0120   -0.2150 C   0  0  0  0  0  0  0  0  0  0  0  0
    4.1520   -4.2280   -0.1900 C   0  0  0  0  0  0  0  0  0  0  0  0
    6.7760    2.4340    0.1460 C   0  0  0  0  0  0  0  0  0  0  0  0
    3.5580   -5.2330   -1.1560 C   0  0  0  0  0  0  0  0  0  0  0  0
   -3.4720   -0.4910   -0.1810 C   0  0  0  0  0  0  0  0  0  0  0  0
   -2.9730    0.8020   -0.2850 C   0  0  0  0  0  0  0  0  0  0  0  0
    1.1940   -2.0110    0.2960 H   0  0  0  0  0  0  0  0  0  0  0  0
    5.5960    0.0180    0.3390 H   0  0  0  0  0  0  0  0  0  0  0  0
    2.3190    3.6560   -0.2370 H   0  0  0  0  0  0  0  0  0  0  0  0
    4.7290    4.1750   -0.1490 H   0  0  0  0  0  0  0  0  0  0  0  0
   -2.9570   -2.5330    0.0700 H   0  0  0  0  0  0  0  0  0  0  0  0
   -1.1940    2.0110   -0.2940 H   0  0  0  0  0  0  0  0  0  0  0  0
    4.0820   -4.6150    0.8260 H   0  0  0  0  0  0  0  0  0  0  0  0
    5.1980   -4.0550   -0.4420 H   0  0  0  0  0  0  0  0  0  0  0  0
    7.3380    1.5090    0.2770 H   0  0  0  0  0  0  0  0  0  0  0  0
    6.9800    3.1040    0.9810 H   0  0  0  0  0  0  0  0  0  0  0  0
    7.0760    2.9130   -0.7860 H   0  0  0  0  0  0  0  0  0  0  0  0
    2.5120   -5.4050   -0.9030 H   0  0  0  0  0  0  0  0  0  0  0  0
    4.1080   -6.1720   -1.0870 H   0  0  0  0  0  0  0  0  0  0  0  0
    3.6270   -4.8450   -2.1720 H   0  0  0  0  0  0  0  0  0  0  0  0
   -4.5340   -0.6820   -0.2320 H   0  0  0  0  0  0  0  0  0  0  0  0
   -3.6450    1.6360   -0.4190 H   0  0  0  0  0  0  0  0  0  0  0  0
  1  3  1  0  0  0  0
  1  5  2  0  0  0  0
  1  7  1  0  0  0  0
  2  4  2  0  0  0  0
  2  6  1  0  0  0  0
  3  6  2  0  0  0  0
  3  9  1  0  0  0  0
  4  5  1  0  0  0  0
  4  8  1  0  0  0  0
  5 23  1  0  0  0  0
  6 12  1  0  0  0  0
  7 11  2  0  0  0  0
  7 14  1  0  0  0  0
  8 10  2  0  0  0  0
  8 17  1  0  0  0  0
  9 13  2  0  0  0  0
  9 24  1  0  0  0  0
 10 16  1  0  0  0  0
 12 15  2  0  0  0  0
 12 25  1  0  0  0  0
 13 15  1  0  0  0  0
 13 19  1  0  0  0  0
 14 18  1  0  0  0  0
 15 26  1  0  0  0  0
 16 21  2  0  0  0  0
 16 27  1  0  0  0  0
 17 22  2  0  0  0  0
 17 28  1  0  0  0  0
 18 20  1  0  0  0  0
 18 29  1  0  0  0  0
 18 30  1  0  0  0  0
 19 31  1  0  0  0  0
 19 32  1  0  0  0  0
 19 33  1  0  0  0  0
 20 34  1  0  0  0  0
 20 35  1  0  0  0  0
 20 36  1  0  0  0  0
 21 22  1  0  0  0  0
 21 37  1  0  0  0  0
 22 38  1  0  0  0  0
M  END
>  <$CLUSTER>
10

>  <INDEX>
4755

$$$$
Specs AK-968/13034311
  MOE2020           3D

 43 45  0  0  0  0  0  0  0  0999 V2000
    5.8320   -1.7510    2.0220 C   0  0  0  0  0  0  0  0  0  0  0  0
    4.8760   -0.6280    1.7580 C   0  0  0  0  0  0  0  0  0  0  0  0
    5.7030   -2.9530    1.3380 C   0  0  0  0  0  0  0  0  0  0  0  0
    6.8680   -1.5830    2.9480 C   0  0  0  0  0  0  0  0  0  0  0  0
    0.3370   -0.0230   -0.0120 C   0  0  0  0  0  0  0  0  0  0  0  0
    7.7630   -2.6300    3.1890 C   0  0  0  0  0  0  0  0  0  0  0  0
    1.4740   -0.8690    0.4080 C   0  0  0  0  0  0  0  0  0  0  0  0
    6.5990   -3.9970    1.5810 C   0  0  0  0  0  0  0  0  0  0  0  0
    3.7210   -1.1080    1.2610 O   0  0  0  0  0  0  0  0  0  0  0  0
    7.6270   -3.8360    2.5060 C   0  0  0  0  0  0  0  0  0  0  0  0
   -0.9890   -0.3710    0.3010 C   0  0  0  0  0  0  0  0  0  0  0  0
    0.6120    1.1300   -0.7590 C   0  0  0  0  0  0  0  0  0  0  0  0
    5.1280    0.5510    1.9700 O   0  0  0  0  0  0  0  0  0  0  0  0
    2.7030   -0.1900    0.9530 C   0  0  0  0  0  0  0  0  0  0  0  0
    1.4110   -2.0890    0.2850 O   0  0  0  0  0  0  0  0  0  0  0  0
   -2.0240    0.4560   -0.1660 C   0  0  0  0  0  0  0  0  0  0  0  0
    7.0770   -0.4400    3.6720 O   0  0  0  0  0  0  0  0  0  0  0  0
   -0.4300    1.9430   -1.2020 C   0  0  0  0  0  0  0  0  0  0  0  0
   -1.7470    1.6050   -0.9080 C   0  0  0  0  0  0  0  0  0  0  0  0
    6.4710   -5.2330    0.8880 C   0  0  0  0  0  0  0  0  0  0  0  0
    8.5300   -4.9040    2.7400 C   0  0  0  0  0  0  0  0  0  0  0  0
   -1.3460   -1.5920    1.1010 C   0  0  0  0  0  0  0  0  0  0  0  0
   -0.1250    3.1730   -1.9920 C   0  0  0  0  0  0  0  0  0  0  0  0
    8.3940   -6.1110    2.0530 C   0  0  0  0  0  0  0  0  0  0  0  0
    7.3660   -6.2750    1.1290 C   0  0  0  0  0  0  0  0  0  0  0  0
    4.9090   -3.0810    0.6170 H   0  0  0  0  0  0  0  0  0  0  0  0
    8.5610   -2.5030    3.9060 H   0  0  0  0  0  0  0  0  0  0  0  0
    1.6340    1.3900   -0.9920 H   0  0  0  0  0  0  0  0  0  0  0  0
    2.4320    0.3520    1.8590 H   0  0  0  0  0  0  0  0  0  0  0  0
    3.0760    0.5120    0.2080 H   0  0  0  0  0  0  0  0  0  0  0  0
   -3.0500    0.1990    0.0530 H   0  0  0  0  0  0  0  0  0  0  0  0
    7.8220   -0.4730    4.2760 H   0  0  0  0  0  0  0  0  0  0  0  0
   -2.5550    2.2320   -1.2540 H   0  0  0  0  0  0  0  0  0  0  0  0
    5.6750   -5.3650    0.1700 H   0  0  0  0  0  0  0  0  0  0  0  0
    9.3300   -4.7820    3.4560 H   0  0  0  0  0  0  0  0  0  0  0  0
   -0.4350   -2.1200    1.3840 H   0  0  0  0  0  0  0  0  0  0  0  0
   -1.9750   -2.2490    0.5000 H   0  0  0  0  0  0  0  0  0  0  0  0
   -1.8870   -1.2930    1.9990 H   0  0  0  0  0  0  0  0  0  0  0  0
    0.9540    3.2660   -2.1180 H   0  0  0  0  0  0  0  0  0  0  0  0
   -0.5060    4.0470   -1.4650 H   0  0  0  0  0  0  0  0  0  0  0  0
   -0.6000    3.1030   -2.9710 H   0  0  0  0  0  0  0  0  0  0  0  0
    9.0870   -6.9180    2.2380 H   0  0  0  0  0  0  0  0  0  0  0  0
    7.2610   -7.2100    0.5980 H   0  0  0  0  0  0  0  0  0  0  0  0
  1  2  1  0  0  0  0
  1  3  1  0  0  0  0
  1  4  2  0  0  0  0
  2  9  1  0  0  0  0
  2 13  2  0  0  0  0
  3  8  2  0  0  0  0
  3 26  1  0  0  0  0
  4  6  1  0  0  0  0
  4 17  1  0  0  0  0
  5  7  1  0  0  0  0
  5 11  2  0  0  0  0
  5 12  1  0  0  0  0
  6 10  2  0  0  0  0
  6 27  1  0  0  0  0
  7 14  1  0  0  0  0
  7 15  2  0  0  0  0
  8 10  1  0  0  0  0
  8 20  1  0  0  0  0
  9 14  1  0  0  0  0
 10 21  1  0  0  0  0
 11 16  1  0  0  0  0
 11 22  1  0  0  0  0
 12 18  2  0  0  0  0
 12 28  1  0  0  0  0
 14 29  1  0  0  0  0
 14 30  1  0  0  0  0
 16 19  2  0  0  0  0
 16 31  1  0  0  0  0
 17 32  1  0  0  0  0
 18 19  1  0  0  0  0
 18 23  1  0  0  0  0
 19 33  1  0  0  0  0
 20 25  2  0  0  0  0
 20 34  1  0  0  0  0
 21 24  2  0  0  0  0
 21 35  1  0  0  0  0
 22 36  1  0  0  0  0
 22 37  1  0  0  0  0
 22 38  1  0  0  0  0
 23 39  1  0  0  0  0
 23 40  1  0  0  0  0
 23 41  1  0  0  0  0
 24 25  1  0  0  0  0
 24 42  1  0  0  0  0
 25 43  1  0  0  0  0
M  END
>  <$CLUSTER>
11

>  <INDEX>
502937

$$$$
Biofocus 103_0255_0057
  MOE2020           3D

 44 46  0  0  1  0  0  0  0  0999 V2000
   -1.1950    0.0020    0.2780 C   0  0  0  0  0  0  0  0  0  0  0  0
   -0.8580    1.3420    0.4300 N   0  0  0  0  0  0  0  0  0  0  0  0
   -0.2340   -0.9410   -0.1120 C   0  0  0  0  0  0  0  0  0  0  0  0
    1.1820   -0.6310   -0.3490 C   0  0  0  0  0  0  0  0  0  0  0  0
    1.7520   -0.8190   -1.6190 C   0  0  0  0  0  0  0  0  0  0  0  0
   -2.4710   -0.4080    0.5050 N   0  0  0  0  0  0  0  0  0  0  0  0
   -0.5480   -2.2500   -0.2970 N   0  0  0  0  0  0  0  0  0  0  0  0
    3.1000   -0.5340   -1.8490 C   0  0  0  0  0  0  0  0  0  0  0  0
   -1.7930    2.3280    0.9520 C   0  0  2  0  0  0  0  0  0  0  0  0
    2.0080   -0.1640    0.6880 C   0  0  0  0  0  0  0  0  0  0  0  0
    3.9010   -0.0640   -0.8120 C   0  0  0  0  0  0  0  0  0  0  0  0
    3.3560    0.1200    0.4570 C   0  0  0  0  0  0  0  0  0  0  0  0
   -2.6090    2.9220   -0.1920 C   0  0  0  0  0  0  0  0  0  0  0  0
   -0.3330    2.9490    2.8470 O   0  0  0  0  0  0  0  0  0  0  0  0
   -1.0020    3.4220    1.6690 C   0  0  0  0  0  0  0  0  0  0  0  0
   -2.7670   -1.7090    0.3250 C   0  0  0  0  0  0  0  0  0  0  0  0
   -1.8210   -2.6160   -0.0740 C   0  0  0  0  0  0  0  0  0  0  0  0
    3.6580   -0.7220   -3.1370 C   0  0  0  0  0  0  0  0  0  0  0  0
    5.2630    0.2170   -1.0540 C   0  0  0  0  0  0  0  0  0  0  0  0
   -3.5830    1.8840   -0.8190 C   0  0  0  0  0  0  0  0  0  0  0  0
   -1.8400    3.6130   -1.3180 C   0  0  0  0  0  0  0  0  0  0  0  0
    5.0050   -0.4390   -3.3640 C   0  0  0  0  0  0  0  0  0  0  0  0
    5.8050    0.0290   -2.3250 C   0  0  0  0  0  0  0  0  0  0  0  0
    0.0700    1.6430    0.1690 H   0  0  0  0  0  0  0  0  0  0  0  0
    1.1400   -1.1890   -2.4280 H   0  0  0  0  0  0  0  0  0  0  0  0
   -2.4800    1.8580    1.6550 H   0  0  0  0  0  0  0  0  0  0  0  0
    1.5950   -0.0230    1.6760 H   0  0  0  0  0  0  0  0  0  0  0  0
    3.9770    0.4830    1.2630 H   0  0  0  0  0  0  0  0  0  0  0  0
   -3.1500    3.7170    0.3210 H   0  0  0  0  0  0  0  0  0  0  0  0
    0.1360    3.6930    3.2330 H   0  0  0  0  0  0  0  0  0  0  0  0
   -1.6900    4.2170    1.9560 H   0  0  0  0  0  0  0  0  0  0  0  0
   -0.2550    3.8190    0.9810 H   0  0  0  0  0  0  0  0  0  0  0  0
   -3.7780   -2.0470    0.5000 H   0  0  0  0  0  0  0  0  0  0  0  0
   -2.1050   -3.6490   -0.2120 H   0  0  0  0  0  0  0  0  0  0  0  0
    3.0400   -1.0850   -3.9450 H   0  0  0  0  0  0  0  0  0  0  0  0
    5.8880    0.5790   -0.2510 H   0  0  0  0  0  0  0  0  0  0  0  0
   -3.0100    1.1050   -1.3220 H   0  0  0  0  0  0  0  0  0  0  0  0
   -4.2300    2.3830   -1.5410 H   0  0  0  0  0  0  0  0  0  0  0  0
   -4.1920    1.4370   -0.0340 H   0  0  0  0  0  0  0  0  0  0  0  0
   -1.2710    2.8710   -1.8780 H   0  0  0  0  0  0  0  0  0  0  0  0
   -1.1580    4.3500   -0.8930 H   0  0  0  0  0  0  0  0  0  0  0  0
   -2.5430    4.1110   -1.9860 H   0  0  0  0  0  0  0  0  0  0  0  0
    5.4280   -0.5830   -4.3470 H   0  0  0  0  0  0  0  0  0  0  0  0
    6.8480    0.2470   -2.5040 H   0  0  0  0  0  0  0  0  0  0  0  0
  1  2  1  0  0  0  0
  1  3  2  0  0  0  0
  1  6  1  0  0  0  0
  2  9  1  0  0  0  0
  2 24  1  0  0  0  0
  3  4  1  0  0  0  0
  3  7  1  0  0  0  0
  4  5  2  0  0  0  0
  4 10  1  0  0  0  0
  5  8  1  0  0  0  0
  5 25  1  0  0  0  0
  6 16  2  0  0  0  0
  7 17  2  0  0  0  0
  8 11  1  0  0  0  0
  8 18  2  0  0  0  0
  9 13  1  0  0  0  0
  9 15  1  0  0  0  0
  9 26  1  0  0  0  0
 10 12  2  0  0  0  0
 10 27  1  0  0  0  0
 11 12  1  0  0  0  0
 11 19  2  0  0  0  0
 12 28  1  0  0  0  0
 13 20  1  0  0  0  0
 13 21  1  0  0  0  0
 13 29  1  0  0  0  0
 14 15  1  0  0  0  0
 14 30  1  0  0  0  0
 15 31  1  0  0  0  0
 15 32  1  0  0  0  0
 16 17  1  0  0  0  0
 16 33  1  0  0  0  0
 17 34  1  0  0  0  0
 18 22  1  0  0  0  0
 18 35  1  0  0  0  0
 19 23  1  0  0  0  0
 19 36  1  0  0  0  0
 20 37  1  0  0  0  0
 20 38  1  0  0  0  0
 20 39  1  0  0  0  0
 21 40  1  0  0  0  0
 21 41  1  0  0  0  0
 21 42  1  0  0  0  0
 22 23  2  0  0  0  0
 22 43  1  0  0  0  0
 23 44  1  0  0  0  0
M  END
>  <$CLUSTER>
12

>  <INDEX>
6075

$$$$
Biofocus 103_0231_0068
  MOE2020           3D

 40 43  0  0  0  0  0  0  0  0999 V2000
   -0.2180    0.8300   -0.0520 C   0  0  0  0  0  0  0  0  0  0  0  0
    1.1210    0.2660    0.1620 C   0  0  0  0  0  0  0  0  0  0  0  0
   -1.3850    0.0670   -0.1970 C   0  0  0  0  0  0  0  0  0  0  0  0
    3.1060    0.0090    1.5510 C   0  0  0  0  0  0  0  0  0  0  0  0
    1.8290    0.5350    1.3450 C   0  0  0  0  0  0  0  0  0  0  0  0
    3.6970   -0.7910    0.5760 C   0  0  0  0  0  0  0  0  0  0  0  0
    3.8910    0.1750    2.6240 O   0  0  0  0  0  0  0  0  0  0  0  0
   -0.2390    2.1880   -0.1060 N   0  0  0  0  0  0  0  0  0  0  0  0
   -2.5670    0.6980   -0.4230 N   0  0  0  0  0  0  0  0  0  0  0  0
    4.9160   -1.2080    0.9300 O   0  0  0  0  0  0  0  0  0  0  0  0
    5.0480   -0.5990    2.2340 C   0  0  0  0  0  0  0  0  0  0  0  0
    1.7370   -0.5360   -0.8140 C   0  0  0  0  0  0  0  0  0  0  0  0
   -5.4100   -5.5660    0.4550 N   0  0  0  0  0  0  0  0  0  0  0  0
    3.0140   -1.0620   -0.6070 C   0  0  0  0  0  0  0  0  0  0  0  0
   -1.3480   -1.3200   -0.1030 N   0  0  0  0  0  0  0  0  0  0  0  0
   -2.5390   -2.1140   -0.3290 C   0  0  0  0  0  0  0  0  0  0  0  0
   -3.4440   -4.4620   -0.4440 C   0  0  0  0  0  0  0  0  0  0  0  0
   -4.2910   -4.8070    0.6040 C   0  0  0  0  0  0  0  0  0  0  0  0
   -2.5720    2.0430   -0.4830 C   0  0  0  0  0  0  0  0  0  0  0  0
   -1.4270    2.7770   -0.3230 C   0  0  0  0  0  0  0  0  0  0  0  0
   -5.6880   -5.9910   -0.8050 C   0  0  0  0  0  0  0  0  0  0  0  0
   -2.2090   -3.5920   -0.2000 C   0  0  0  0  0  0  0  0  0  0  0  0
   -3.7650   -4.9110   -1.7250 C   0  0  0  0  0  0  0  0  0  0  0  0
   -4.9050   -5.6910   -1.9110 C   0  0  0  0  0  0  0  0  0  0  0  0
    1.3800    1.1570    2.1050 H   0  0  0  0  0  0  0  0  0  0  0  0
    5.2010   -1.3880    2.9700 H   0  0  0  0  0  0  0  0  0  0  0  0
    5.9170    0.0590    2.2220 H   0  0  0  0  0  0  0  0  0  0  0  0
    1.2160   -0.7480   -1.7360 H   0  0  0  0  0  0  0  0  0  0  0  0
    3.4720   -1.6800   -1.3650 H   0  0  0  0  0  0  0  0  0  0  0  0
   -0.4790   -1.7800    0.1260 H   0  0  0  0  0  0  0  0  0  0  0  0
   -2.9210   -1.9150   -1.3300 H   0  0  0  0  0  0  0  0  0  0  0  0
   -3.2960   -1.8470    0.4080 H   0  0  0  0  0  0  0  0  0  0  0  0
   -4.0460   -4.4510    1.5940 H   0  0  0  0  0  0  0  0  0  0  0  0
   -3.5050    2.5570   -0.6620 H   0  0  0  0  0  0  0  0  0  0  0  0
   -1.4800    3.8550   -0.3720 H   0  0  0  0  0  0  0  0  0  0  0  0
   -6.5690   -6.5970   -0.9550 H   0  0  0  0  0  0  0  0  0  0  0  0
   -1.8320   -3.7850    0.8040 H   0  0  0  0  0  0  0  0  0  0  0  0
   -1.4430   -3.8500   -0.9320 H   0  0  0  0  0  0  0  0  0  0  0  0
   -3.1360   -4.6570   -2.5650 H   0  0  0  0  0  0  0  0  0  0  0  0
   -5.1730   -6.0530   -2.8930 H   0  0  0  0  0  0  0  0  0  0  0  0
  1  2  1  0  0  0  0
  1  3  2  0  0  0  0
  1  8  1  0  0  0  0
  2  5  2  0  0  0  0
  2 12  1  0  0  0  0
  3  9  1  0  0  0  0
  3 15  1  0  0  0  0
  4  5  1  0  0  0  0
  4  6  2  0  0  0  0
  4  7  1  0  0  0  0
  5 25  1  0  0  0  0
  6 10  1  0  0  0  0
  6 14  1  0  0  0  0
  7 11  1  0  0  0  0
  8 20  2  0  0  0  0
  9 19  2  0  0  0  0
 10 11  1  0  0  0  0
 11 26  1  0  0  0  0
 11 27  1  0  0  0  0
 12 14  2  0  0  0  0
 12 28  1  0  0  0  0
 13 18  2  0  0  0  0
 13 21  1  0  0  0  0
 14 29  1  0  0  0  0
 15 16  1  0  0  0  0
 15 30  1  0  0  0  0
 16 22  1  0  0  0  0
 16 31  1  0  0  0  0
 16 32  1  0  0  0  0
 17 18  1  0  0  0  0
 17 22  1  0  0  0  0
 17 23  2  0  0  0  0
 18 33  1  0  0  0  0
 19 20  1  0  0  0  0
 19 34  1  0  0  0  0
 20 35  1  0  0  0  0
 21 24  2  0  0  0  0
 21 36  1  0  0  0  0
 22 37  1  0  0  0  0
 22 38  1  0  0  0  0
 23 24  1  0  0  0  0
 23 39  1  0  0  0  0
 24 40  1  0  0  0  0
M  END
>  <$CLUSTER>
13

>  <INDEX>
5959

$$$$
Biofocus 103_0360_0280
  MOE2020           3D

 42 44  0  0  0  0  0  0  0  0999 V2000
   -1.3850    0.0670   -0.1970 C   0  0  0  0  0  0  0  0  0  0  0  0
   -0.2180    0.8300   -0.0520 C   0  0  0  0  0  0  0  0  0  0  0  0
   -1.3480   -1.3200   -0.1030 N   0  0  0  0  0  0  0  0  0  0  0  0
   -2.5670    0.6980   -0.4230 N   0  0  0  0  0  0  0  0  0  0  0  0
   -0.2390    2.1880   -0.1060 N   0  0  0  0  0  0  0  0  0  0  0  0
    1.1210    0.2660    0.1620 C   0  0  0  0  0  0  0  0  0  0  0  0
    1.8290    0.5350    1.3450 C   0  0  0  0  0  0  0  0  0  0  0  0
    1.7370   -0.5360   -0.8140 C   0  0  0  0  0  0  0  0  0  0  0  0
   -2.5390   -2.1140   -0.3290 C   0  0  0  0  0  0  0  0  0  0  0  0
    3.6970   -0.7910    0.5760 C   0  0  0  0  0  0  0  0  0  0  0  0
   -2.5070   -4.2940    0.9840 C   0  0  0  0  0  0  0  0  0  0  0  0
   -2.2090   -3.5920   -0.2000 C   0  0  0  0  0  0  0  0  0  0  0  0
    3.0140   -1.0620   -0.6070 C   0  0  0  0  0  0  0  0  0  0  0  0
    3.1060    0.0090    1.5510 C   0  0  0  0  0  0  0  0  0  0  0  0
   -2.2250   -5.6590    1.0930 C   0  0  0  0  0  0  0  0  0  0  0  0
    4.9450   -1.3610    0.6600 O   0  0  0  0  0  0  0  0  0  0  0  0
   -1.3470   -5.6610   -1.1580 C   0  0  0  0  0  0  0  0  0  0  0  0
   -2.5720    2.0430   -0.4830 C   0  0  0  0  0  0  0  0  0  0  0  0
   -1.4270    2.7770   -0.3230 C   0  0  0  0  0  0  0  0  0  0  0  0
   -1.6280   -4.2960   -1.2680 C   0  0  0  0  0  0  0  0  0  0  0  0
   -1.6480   -6.3420    0.0220 C   0  0  0  0  0  0  0  0  0  0  0  0
   -2.5400   -6.3890    2.3580 C   0  0  0  0  0  0  0  0  0  0  0  0
    5.6870   -1.1140    1.8490 C   0  0  0  0  0  0  0  0  0  0  0  0
   -0.4790   -1.7800    0.1260 H   0  0  0  0  0  0  0  0  0  0  0  0
    1.3800    1.1570    2.1050 H   0  0  0  0  0  0  0  0  0  0  0  0
    1.2160   -0.7480   -1.7360 H   0  0  0  0  0  0  0  0  0  0  0  0
   -2.9210   -1.9150   -1.3300 H   0  0  0  0  0  0  0  0  0  0  0  0
   -3.2960   -1.8470    0.4080 H   0  0  0  0  0  0  0  0  0  0  0  0
   -2.9580   -3.7730    1.8160 H   0  0  0  0  0  0  0  0  0  0  0  0
    3.4720   -1.6800   -1.3650 H   0  0  0  0  0  0  0  0  0  0  0  0
    3.6360    0.2230    2.4670 H   0  0  0  0  0  0  0  0  0  0  0  0
   -0.8970   -6.1880   -1.9860 H   0  0  0  0  0  0  0  0  0  0  0  0
   -3.5050    2.5570   -0.6620 H   0  0  0  0  0  0  0  0  0  0  0  0
   -1.4800    3.8550   -0.3720 H   0  0  0  0  0  0  0  0  0  0  0  0
   -1.3960   -3.7760   -2.1860 H   0  0  0  0  0  0  0  0  0  0  0  0
   -1.4340   -7.3970    0.1060 H   0  0  0  0  0  0  0  0  0  0  0  0
   -2.9820   -5.6980    3.0760 H   0  0  0  0  0  0  0  0  0  0  0  0
   -1.6230   -6.8070    2.7740 H   0  0  0  0  0  0  0  0  0  0  0  0
   -3.2440   -7.1940    2.1470 H   0  0  0  0  0  0  0  0  0  0  0  0
    6.6510   -1.6190    1.7870 H   0  0  0  0  0  0  0  0  0  0  0  0
    5.1330   -1.4920    2.7080 H   0  0  0  0  0  0  0  0  0  0  0  0
    5.8460   -0.0420    1.9620 H   0  0  0  0  0  0  0  0  0  0  0  0
  1  2  2  0  0  0  0
  1  3  1  0  0  0  0
  1  4  1  0  0  0  0
  2  5  1  0  0  0  0
  2  6  1  0  0  0  0
  3  9  1  0  0  0  0
  3 24  1  0  0  0  0
  4 18  2  0  0  0  0
  5 19  2  0  0  0  0
  6  7  1  0  0  0  0
  6  8  2  0  0  0  0
  7 14  2  0  0  0  0
  7 25  1  0  0  0  0
  8 13  1  0  0  0  0
  8 26  1  0  0  0  0
  9 12  1  0  0  0  0
  9 27  1  0  0  0  0
  9 28  1  0  0  0  0
 10 13  2  0  0  0  0
 10 14  1  0  0  0  0
 10 16  1  0  0  0  0
 11 12  2  0  0  0  0
 11 15  1  0  0  0  0
 11 29  1  0  0  0  0
 12 20  1  0  0  0  0
 13 30  1  0  0  0  0
 14 31  1  0  0  0  0
 15 21  2  0  0  0  0
 15 22  1  0  0  0  0
 16 23  1  0  0  0  0
 17 20  2  0  0  0  0
 17 21  1  0  0  0  0
 17 32  1  0  0  0  0
 18 19  1  0  0  0  0
 18 33  1  0  0  0  0
 19 34  1  0  0  0  0
 20 35  1  0  0  0  0
 21 36  1  0  0  0  0
 22 37  1  0  0  0  0
 22 38  1  0  0  0  0
 22 39  1  0  0  0  0
 23 40  1  0  0  0  0
 23 41  1  0  0  0  0
 23 42  1  0  0  0  0
M  END
>  <$CLUSTER>
14

>  <INDEX>
6205

$$$$
Bionet 11H-401S
  MOE2020           3D

 39 41  0  0  0  0  0  0  0  0999 V2000
   -2.0110   -0.9450   -0.9400 C   0  0  0  0  0  0  0  0  0  0  0  0
    1.9110    0.6710    0.5490 C   0  0  0  0  0  0  0  0  0  0  0  0
    2.3110   -0.0060   -0.6660 N   0  3  0  0  0  0  0  0  0  0  0  0
   -1.1470   -0.0430   -0.3390 C   0  0  0  0  0  0  0  0  0  0  0  0
   -2.1540   -2.3900   -0.7970 C   0  0  0  0  0  0  0  0  0  0  0  0
    1.3980   -6.2640    2.6340 C   0  0  0  0  0  0  0  0  0  0  0  0
    0.6610    0.4230    1.1210 C   0  0  0  0  0  0  0  0  0  0  0  0
   -0.2270   -0.4640    0.5700 O   0  0  0  0  0  0  0  0  0  0  0  0
   -3.0710   -0.1380   -2.0330 S   0  0  0  0  0  0  0  0  0  0  0  0
   -1.2320   -3.0080    0.0240 N   0  0  0  0  0  0  0  0  0  0  0  0
    2.8060    1.5730    1.1280 C   0  0  0  0  0  0  0  0  0  0  0  0
   -1.3560    1.2990   -0.7890 C   0  0  0  0  0  0  0  0  0  0  0  0
    0.2710   -5.9350    1.7010 C   0  0  0  0  0  0  0  0  0  0  0  0
   -2.3730    1.3830   -1.7110 C   0  0  0  0  0  0  0  0  0  0  0  0
    2.2150   -1.2400   -0.6880 O   0  5  0  0  0  0  0  0  0  0  0  0
    2.7280    0.6990   -1.5940 O   0  0  0  0  0  0  0  0  0  0  0  0
   -3.0250   -3.0540   -1.3600 O   0  0  0  0  0  0  0  0  0  0  0  0
   -1.0280   -4.3310    0.4140 C   0  0  0  0  0  0  0  0  0  0  0  0
    0.0310   -4.6240    1.2860 C   0  0  0  0  0  0  0  0  0  0  0  0
    0.3150    1.0590    2.3140 C   0  0  0  0  0  0  0  0  0  0  0  0
    2.2570   -7.1510    2.0610 F   0  0  0  0  0  0  0  0  0  0  0  0
    0.9290   -6.8530    3.7690 F   0  0  0  0  0  0  0  0  0  0  0  0
    2.1490   -5.2010    3.0330 F   0  0  0  0  0  0  0  0  0  0  0  0
    2.4440    2.2190    2.3100 C   0  0  0  0  0  0  0  0  0  0  0  0
    1.2050    1.9610    2.9030 C   0  0  0  0  0  0  0  0  0  0  0  0
    3.3400    3.0720    2.8130 F   0  0  0  0  0  0  0  0  0  0  0  0
   -0.5430   -6.9690    1.2500 C   0  0  0  0  0  0  0  0  0  0  0  0
   -1.5980   -6.6890    0.3830 C   0  0  0  0  0  0  0  0  0  0  0  0
   -1.8410   -5.3760   -0.0350 C   0  0  0  0  0  0  0  0  0  0  0  0
   -0.5640   -2.3660    0.4270 H   0  0  0  0  0  0  0  0  0  0  0  0
    3.7640    1.7670    0.6680 H   0  0  0  0  0  0  0  0  0  0  0  0
   -0.7820    2.1470   -0.4450 H   0  0  0  0  0  0  0  0  0  0  0  0
   -2.6920    2.3040   -2.1760 H   0  0  0  0  0  0  0  0  0  0  0  0
    0.6680   -3.8270    1.6400 H   0  0  0  0  0  0  0  0  0  0  0  0
   -0.6370    0.8550    2.7800 H   0  0  0  0  0  0  0  0  0  0  0  0
    0.9340    2.4610    3.8210 H   0  0  0  0  0  0  0  0  0  0  0  0
   -0.3580   -7.9840    1.5700 H   0  0  0  0  0  0  0  0  0  0  0  0
   -2.2310   -7.4900    0.0320 H   0  0  0  0  0  0  0  0  0  0  0  0
   -2.6600   -5.1690   -0.7080 H   0  0  0  0  0  0  0  0  0  0  0  0
  1  4  2  0  0  0  0
  1  5  1  0  0  0  0
  1  9  1  0  0  0  0
  2  3  1  0  0  0  0
  2  7  2  0  0  0  0
  2 11  1  0  0  0  0
  3 15  1  0  0  0  0
  3 16  2  0  0  0  0
  4  8  1  0  0  0  0
  4 12  1  0  0  0  0
  5 10  1  0  0  0  0
  5 17  2  0  0  0  0
  6 13  1  0  0  0  0
  6 21  1  0  0  0  0
  6 22  1  0  0  0  0
  6 23  1  0  0  0  0
  7  8  1  0  0  0  0
  7 20  1  0  0  0  0
  9 14  1  0  0  0  0
 10 18  1  0  0  0  0
 10 30  1  0  0  0  0
 11 24  2  0  0  0  0
 11 31  1  0  0  0  0
 12 14  2  0  0  0  0
 12 32  1  0  0  0  0
 13 19  2  0  0  0  0
 13 27  1  0  0  0  0
 14 33  1  0  0  0  0
 18 19  1  0  0  0  0
 18 29  2  0  0  0  0
 19 34  1  0  0  0  0
 20 25  2  0  0  0  0
 20 35  1  0  0  0  0
 24 25  1  0  0  0  0
 24 26  1  0  0  0  0
 25 36  1  0  0  0  0
 27 28  2  0  0  0  0
 27 37  1  0  0  0  0
 28 29  1  0  0  0  0
 28 38  1  0  0  0  0
 29 39  1  0  0  0  0
M  CHG  1   3   1
M  CHG  1  15  -1
M  END
>  <$CLUSTER>
15

>  <INDEX>
10925

$$$$
Bionet 10H-447
  MOE2020           3D

 37 38  0  0  1  0  0  0  0  0999 V2000
    0.3220   -0.0040   -0.0720 N   0  0  0  0  0  0  0  0  0  0  0  0
   -1.0800    0.2490   -0.1330 C   0  0  0  0  0  0  0  0  0  0  0  0
   -1.6050   -0.0650    1.1430 N   0  0  0  0  0  0  0  0  0  0  0  0
    0.7140   -0.3230    1.2920 C   0  0  3  0  0  0  0  0  0  0  0  0
   -0.5970   -0.6570    2.0000 C   0  0  3  0  0  0  0  0  0  0  0  0
    1.2520    0.0680   -1.1520 C   0  0  0  0  0  0  0  0  0  0  0  0
    0.8360    0.2630   -2.4780 C   0  0  0  0  0  0  0  0  0  0  0  0
   -1.7370    0.6790   -1.0730 O   0  0  0  0  0  0  0  0  0  0  0  0
    1.7630    0.3290   -3.5260 C   0  0  0  0  0  0  0  0  0  0  0  0
   -2.9900    0.1840    1.5560 C   0  0  0  0  0  0  0  0  0  0  0  0
    2.6320   -0.0660   -0.9180 C   0  0  0  0  0  0  0  0  0  0  0  0
    3.1230    0.1990   -3.2700 C   0  0  0  0  0  0  0  0  0  0  0  0
   -0.7770   -2.0660    2.0260 O   0  0  0  0  0  0  0  0  0  0  0  0
    1.2940    0.8310    1.8900 O   0  0  0  0  0  0  0  0  0  0  0  0
    3.5570    0.0010   -1.9650 C   0  0  0  0  0  0  0  0  0  0  0  0
    1.1470    0.5770   -5.1250 Cl  0  0  0  0  0  0  0  0  0  0  0  0
    3.9760    0.2760   -4.3760 O   0  0  0  0  0  0  0  0  0  0  0  0
   -3.0640    1.4070    2.4700 C   0  0  0  0  0  0  0  0  0  0  0  0
   -3.6450   -1.0310    2.2090 C   0  0  0  0  0  0  0  0  0  0  0  0
    5.3800    0.1410   -4.1220 C   0  0  0  0  0  0  0  0  0  0  0  0
    1.4370   -1.1370    1.3460 H   0  0  0  0  0  0  0  0  0  0  0  0
   -0.6330   -0.2960    3.0280 H   0  0  0  0  0  0  0  0  0  0  0  0
   -0.2170    0.3640   -2.6940 H   0  0  0  0  0  0  0  0  0  0  0  0
   -3.5600    0.3860    0.6490 H   0  0  0  0  0  0  0  0  0  0  0  0
    2.9850   -0.2240    0.0900 H   0  0  0  0  0  0  0  0  0  0  0  0
   -0.7440   -2.3800    1.1190 H   0  0  0  0  0  0  0  0  0  0  0  0
    0.6490    1.5400    1.8370 H   0  0  0  0  0  0  0  0  0  0  0  0
    4.6120   -0.1020   -1.7580 H   0  0  0  0  0  0  0  0  0  0  0  0
   -2.4970    1.2150    3.3810 H   0  0  0  0  0  0  0  0  0  0  0  0
   -4.1050    1.6070    2.7250 H   0  0  0  0  0  0  0  0  0  0  0  0
   -2.6430    2.2710    1.9560 H   0  0  0  0  0  0  0  0  0  0  0  0
   -3.1140   -1.2800    3.1270 H   0  0  0  0  0  0  0  0  0  0  0  0
   -3.6040   -1.8780    1.5240 H   0  0  0  0  0  0  0  0  0  0  0  0
   -4.6850   -0.8020    2.4420 H   0  0  0  0  0  0  0  0  0  0  0  0
    5.9280    0.2190   -5.0610 H   0  0  0  0  0  0  0  0  0  0  0  0
    5.5750   -0.8300   -3.6670 H   0  0  0  0  0  0  0  0  0  0  0  0
    5.7040    0.9310   -3.4450 H   0  0  0  0  0  0  0  0  0  0  0  0
  1  2  1  0  0  0  0
  1  4  1  0  0  0  0
  1  6  1  0  0  0  0
  2  3  1  0  0  0  0
  2  8  2  0  0  0  0
  3  5  1  0  0  0  0
  3 10  1  0  0  0  0
  4  5  1  0  0  0  0
  4 14  1  0  0  0  0
  4 21  1  0  0  0  0
  5 13  1  0  0  0  0
  5 22  1  0  0  0  0
  6  7  2  0  0  0  0
  6 11  1  0  0  0  0
  7  9  1  0  0  0  0
  7 23  1  0  0  0  0
  9 12  2  0  0  0  0
  9 16  1  0  0  0  0
 10 18  1  0  0  0  0
 10 19  1  0  0  0  0
 10 24  1  0  0  0  0
 11 15  2  0  0  0  0
 11 25  1  0  0  0  0
 12 15  1  0  0  0  0
 12 17  1  0  0  0  0
 13 26  1  0  0  0  0
 14 27  1  0  0  0  0
 15 28  1  0  0  0  0
 17 20  1  0  0  0  0
 18 29  1  0  0  0  0
 18 30  1  0  0  0  0
 18 31  1  0  0  0  0
 19 32  1  0  0  0  0
 19 33  1  0  0  0  0
 19 34  1  0  0  0  0
 20 35  1  0  0  0  0
 20 36  1  0  0  0  0
 20 37  1  0  0  0  0
M  END
>  <$CLUSTER>
16

>  <INDEX>
7019

$$$$
Bionet 10J-371S
  MOE2020           3D

 23 24  0  0  0  0  0  0  0  0999 V2000
   -0.6080   -0.1050    0.1070 C   0  0  0  0  0  0  0  0  0  0  0  0
   -1.4930    0.9760    0.1070 C   0  0  0  0  0  0  0  0  0  0  0  0
   -2.8270    0.8890    0.3260 N   0  0  0  0  0  0  0  0  0  0  0  0
   -1.1850   -1.3580    0.3560 C   0  0  0  0  0  0  0  0  0  0  0  0
    0.8320    0.0430   -0.1360 C   0  0  0  0  0  0  0  0  0  0  0  0
   -2.5520   -1.4930    0.5860 C   0  0  0  0  0  0  0  0  0  0  0  0
   -3.3210   -0.3440    0.5600 C   0  0  0  0  0  0  0  0  0  0  0  0
    1.7200    0.2590    0.9290 C   0  0  0  0  0  0  0  0  0  0  0  0
   -0.9740    2.5980   -0.1790 Cl  0  0  0  0  0  0  0  0  0  0  0  0
   -0.3840   -2.4720    0.3730 O   0  0  0  0  0  0  0  0  0  0  0  0
    3.0900    0.4010    0.6970 C   0  0  0  0  0  0  0  0  0  0  0  0
   -4.6370   -0.4450    0.7410 O   0  0  0  0  0  0  0  0  0  0  0  0
    4.1610    0.6650    1.9940 Cl  0  0  0  0  0  0  0  0  0  0  0  0
    1.3500   -0.0310   -1.4390 C   0  0  0  0  0  0  0  0  0  0  0  0
    2.7200    0.1100   -1.6690 C   0  0  0  0  0  0  0  0  0  0  0  0
    3.5890    0.3270   -0.6020 C   0  0  0  0  0  0  0  0  0  0  0  0
   -2.9950   -2.4590    0.7780 H   0  0  0  0  0  0  0  0  0  0  0  0
    1.3400    0.3160    1.9380 H   0  0  0  0  0  0  0  0  0  0  0  0
   -0.8410   -3.2980    0.5490 H   0  0  0  0  0  0  0  0  0  0  0  0
   -4.9600   -1.3380    0.8800 H   0  0  0  0  0  0  0  0  0  0  0  0
    0.6820   -0.1990   -2.2710 H   0  0  0  0  0  0  0  0  0  0  0  0
    3.1070    0.0510   -2.6760 H   0  0  0  0  0  0  0  0  0  0  0  0
    4.6480    0.4380   -0.7810 H   0  0  0  0  0  0  0  0  0  0  0  0
  1  2  2  0  0  0  0
  1  4  1  0  0  0  0
  1  5  1  0  0  0  0
  2  3  1  0  0  0  0
  2  9  1  0  0  0  0
  3  7  2  0  0  0  0
  4  6  2  0  0  0  0
  4 10  1  0  0  0  0
  5  8  2  0  0  0  0
  5 14  1  0  0  0  0
  6  7  1  0  0  0  0
  6 17  1  0  0  0  0
  7 12  1  0  0  0  0
  8 11  1  0  0  0  0
  8 18  1  0  0  0  0
 10 19  1  0  0  0  0
 11 13  1  0  0  0  0
 11 16  2  0  0  0  0
 12 20  1  0  0  0  0
 14 15  2  0  0  0  0
 14 21  1  0  0  0  0
 15 16  1  0  0  0  0
 15 22  1  0  0  0  0
 16 23  1  0  0  0  0
M  END
>  <$CLUSTER>
17

>  <INDEX>
7112

$$$$
Maybridge KM 02986
  MOE2020           3D

 44 46  0  0  0  0  0  0  0  0999 V2000
   -1.1810    0.0750    0.0430 C   0  0  0  0  0  0  0  0  0  0  0  0
   -0.0260   -0.5040   -0.4680 C   0  0  0  0  0  0  0  0  0  0  0  0
    0.6390    1.1160    0.9770 N   0  0  0  0  0  0  0  0  0  0  0  0
   -2.4260   -0.4140   -0.4040 C   0  0  0  0  0  0  0  0  0  0  0  0
   -2.3930   -1.4710   -1.3250 C   0  0  0  0  0  0  0  0  0  0  0  0
    1.0210    0.1500    0.1200 N   0  0  0  0  0  0  0  0  0  0  0  0
   -0.6950    1.0680    0.9250 C   0  0  0  0  0  0  0  0  0  0  0  0
   -3.5920   -2.1170   -1.8860 C   0  0  0  0  0  0  0  0  0  0  0  0
    0.0540   -1.5020   -1.3660 N   0  0  0  0  0  0  0  0  0  0  0  0
   -1.1590   -1.9490   -1.7650 C   0  0  0  0  0  0  0  0  0  0  0  0
   -4.5390   -2.5160   -0.9730 N   0  0  0  0  0  0  0  0  0  0  0  0
   -3.8790    0.3890    0.2160 S   0  0  0  0  0  0  0  0  0  0  0  0
   -7.5160   -4.1630   -2.4800 C   0  0  0  0  0  0  0  0  0  0  0  0
   -6.2730   -3.5280   -2.3850 C   0  0  0  0  0  0  0  0  0  0  0  0
   -5.7690   -3.1480   -1.1380 C   0  0  0  0  0  0  0  0  0  0  0  0
   -3.6780   -2.3010   -3.0960 O   0  0  0  0  0  0  0  0  0  0  0  0
   -8.2650   -4.4240   -1.3350 C   0  0  0  0  0  0  0  0  0  0  0  0
   -7.7720   -4.0490   -0.0880 C   0  0  0  0  0  0  0  0  0  0  0  0
   -8.1030   -4.6150   -4.0160 Cl  0  0  0  0  0  0  0  0  0  0  0  0
   -6.5320   -3.4150    0.0090 C   0  0  0  0  0  0  0  0  0  0  0  0
    2.4280   -0.0860   -0.0830 C   0  0  0  0  0  0  0  0  0  0  0  0
   -9.4540   -5.0240   -1.3450 F   0  0  0  0  0  0  0  0  0  0  0  0
   -1.5660    1.9590    1.7060 C   0  0  0  0  0  0  0  0  0  0  0  0
   -4.2840    1.4030   -1.2300 C   0  0  0  0  0  0  0  0  0  0  0  0
   -3.2380    2.4690   -1.5550 C   0  0  0  0  0  0  0  0  0  0  0  0
   -4.6650    0.5940   -2.4700 C   0  0  0  0  0  0  0  0  0  0  0  0
   -1.1730   -2.7490   -2.4900 H   0  0  0  0  0  0  0  0  0  0  0  0
   -4.3010   -2.3150   -0.0120 H   0  0  0  0  0  0  0  0  0  0  0  0
   -5.7000   -3.3310   -3.2790 H   0  0  0  0  0  0  0  0  0  0  0  0
   -8.3480   -4.2480    0.8030 H   0  0  0  0  0  0  0  0  0  0  0  0
   -6.1550   -3.1260    0.9790 H   0  0  0  0  0  0  0  0  0  0  0  0
    2.5610   -0.8950   -0.8010 H   0  0  0  0  0  0  0  0  0  0  0  0
    2.8910   -0.3620    0.8650 H   0  0  0  0  0  0  0  0  0  0  0  0
    2.8970    0.8210   -0.4660 H   0  0  0  0  0  0  0  0  0  0  0  0
   -2.6090    1.7260    1.4930 H   0  0  0  0  0  0  0  0  0  0  0  0
   -1.3620    2.9950    1.4350 H   0  0  0  0  0  0  0  0  0  0  0  0
   -1.3720    1.8160    2.7690 H   0  0  0  0  0  0  0  0  0  0  0  0
   -5.1830    1.9370   -0.9220 H   0  0  0  0  0  0  0  0  0  0  0  0
   -2.3130    1.9860   -1.8710 H   0  0  0  0  0  0  0  0  0  0  0  0
   -3.0480    3.0740   -0.6680 H   0  0  0  0  0  0  0  0  0  0  0  0
   -3.6070    3.1070   -2.3580 H   0  0  0  0  0  0  0  0  0  0  0  0
   -3.7960    0.0370   -2.8220 H   0  0  0  0  0  0  0  0  0  0  0  0
   -5.0050    1.2700   -3.2550 H   0  0  0  0  0  0  0  0  0  0  0  0
   -5.4650   -0.1020   -2.2180 H   0  0  0  0  0  0  0  0  0  0  0  0
  1  2  1  0  0  0  0
  1  4  2  0  0  0  0
  1  7  1  0  0  0  0
  2  6  1  0  0  0  0
  2  9  2  0  0  0  0
  3  6  1  0  0  0  0
  3  7  2  0  0  0  0
  4  5  1  0  0  0  0
  4 12  1  0  0  0  0
  5  8  1  0  0  0  0
  5 10  2  0  0  0  0
  6 21  1  0  0  0  0
  7 23  1  0  0  0  0
  8 11  1  0  0  0  0
  8 16  2  0  0  0  0
  9 10  1  0  0  0  0
 10 27  1  0  0  0  0
 11 15  1  0  0  0  0
 11 28  1  0  0  0  0
 12 24  1  0  0  0  0
 13 14  2  0  0  0  0
 13 17  1  0  0  0  0
 13 19  1  0  0  0  0
 14 15  1  0  0  0  0
 14 29  1  0  0  0  0
 15 20  2  0  0  0  0
 17 18  2  0  0  0  0
 17 22  1  0  0  0  0
 18 20  1  0  0  0  0
 18 30  1  0  0  0  0
 20 31  1  0  0  0  0
 21 32  1  0  0  0  0
 21 33  1  0  0  0  0
 21 34  1  0  0  0  0
 23 35  1  0  0  0  0
 23 36  1  0  0  0  0
 23 37  1  0  0  0  0
 24 25  1  0  0  0  0
 24 26  1  0  0  0  0
 24 38  1  0  0  0  0
 25 39  1  0  0  0  0
 25 40  1  0  0  0  0
 25 41  1  0  0  0  0
 26 42  1  0  0  0  0
 26 43  1  0  0  0  0
 26 44  1  0  0  0  0
M  END
>  <$CLUSTER>
18

>  <INDEX>
555440

$$$$
Bionet 10X-0864
  MOE2020           3D

 43 45  0  0  0  0  0  0  0  0999 V2000
   -4.4790   -3.2510   -6.4050 S   0  0  0  0  0  0  0  0  0  0  0  0
   -4.1080   -4.8820   -6.3650 N   0  0  0  0  0  0  0  0  0  0  0  0
    0.9160    0.2420    1.7950 C   0  0  0  0  0  0  0  0  0  0  0  0
    0.3990    1.3830    1.3990 N   0  0  0  0  0  0  0  0  0  0  0  0
    0.8630   -1.0510    0.6700 S   0  0  0  0  0  0  0  0  0  0  0  0
    0.0800   -0.0170   -0.4540 C   0  0  0  0  0  0  0  0  0  0  0  0
   -3.5990   -2.6040   -5.0240 C   0  0  0  0  0  0  0  0  0  0  0  0
   -0.0800    1.2330    0.1120 C   0  0  0  0  0  0  0  0  0  0  0  0
   -5.9030   -3.1190   -6.1440 O   0  0  0  0  0  0  0  0  0  0  0  0
   -3.9110   -2.7000   -7.6220 O   0  0  0  0  0  0  0  0  0  0  0  0
   -2.7140   -5.2860   -6.6910 C   0  0  0  0  0  0  0  0  0  0  0  0
   -4.6610   -5.6970   -5.2500 C   0  0  0  0  0  0  0  0  0  0  0  0
   -4.2030   -2.5620   -3.7700 C   0  0  0  0  0  0  0  0  0  0  0  0
   -2.3070   -2.1090   -5.1890 C   0  0  0  0  0  0  0  0  0  0  0  0
    1.5840    0.1020    3.3380 Cl  0  0  0  0  0  0  0  0  0  0  0  0
   -0.3180   -0.4960   -1.8020 C   0  0  0  0  0  0  0  0  0  0  0  0
   -1.6350   -1.0150   -1.6870 O   0  0  0  0  0  0  0  0  0  0  0  0
   -2.2150   -1.5230   -2.8400 C   0  0  0  0  0  0  0  0  0  0  0  0
   -3.5130   -2.0230   -2.6830 C   0  0  0  0  0  0  0  0  0  0  0  0
   -1.6150   -1.5690   -4.1010 C   0  0  0  0  0  0  0  0  0  0  0  0
   -2.5910   -6.7790   -6.9850 C   0  0  0  0  0  0  0  0  0  0  0  0
   -4.5710   -7.1950   -5.5190 C   0  0  0  0  0  0  0  0  0  0  0  0
   -3.1410   -7.6340   -5.8420 C   0  0  0  0  0  0  0  0  0  0  0  0
   -3.0860   -9.1190   -6.1890 C   0  0  0  0  0  0  0  0  0  0  0  0
   -0.5520    2.0450   -0.4210 H   0  0  0  0  0  0  0  0  0  0  0  0
   -2.0720   -5.0430   -5.8440 H   0  0  0  0  0  0  0  0  0  0  0  0
   -2.3850   -4.7290   -7.5680 H   0  0  0  0  0  0  0  0  0  0  0  0
   -5.7080   -5.4300   -5.1080 H   0  0  0  0  0  0  0  0  0  0  0  0
   -4.1020   -5.4710   -4.3420 H   0  0  0  0  0  0  0  0  0  0  0  0
   -5.2040   -2.9460   -3.6390 H   0  0  0  0  0  0  0  0  0  0  0  0
   -1.8380   -2.1430   -6.1610 H   0  0  0  0  0  0  0  0  0  0  0  0
    0.3640   -1.2770   -2.1380 H   0  0  0  0  0  0  0  0  0  0  0  0
   -0.3020    0.3300   -2.5130 H   0  0  0  0  0  0  0  0  0  0  0  0
   -3.9850   -1.9910   -1.7120 H   0  0  0  0  0  0  0  0  0  0  0  0
   -0.6140   -1.1860   -4.2350 H   0  0  0  0  0  0  0  0  0  0  0  0
   -1.5390   -7.0230   -7.1330 H   0  0  0  0  0  0  0  0  0  0  0  0
   -3.1480   -7.0060   -7.8940 H   0  0  0  0  0  0  0  0  0  0  0  0
   -5.2140   -7.4400   -6.3640 H   0  0  0  0  0  0  0  0  0  0  0  0
   -4.9130   -7.7330   -4.6350 H   0  0  0  0  0  0  0  0  0  0  0  0
   -2.5180   -7.4870   -4.9600 H   0  0  0  0  0  0  0  0  0  0  0  0
   -3.6990   -9.3090   -7.0700 H   0  0  0  0  0  0  0  0  0  0  0  0
   -3.4650   -9.7020   -5.3500 H   0  0  0  0  0  0  0  0  0  0  0  0
   -2.0550   -9.4060   -6.3950 H   0  0  0  0  0  0  0  0  0  0  0  0
  1  2  1  0  0  0  0
  1  7  1  0  0  0  0
  1  9  2  0  0  0  0
  1 10  2  0  0  0  0
  2 11  1  0  0  0  0
  2 12  1  0  0  0  0
  3  4  2  0  0  0  0
  3  5  1  0  0  0  0
  3 15  1  0  0  0  0
  4  8  1  0  0  0  0
  5  6  1  0  0  0  0
  6  8  2  0  0  0  0
  6 16  1  0  0  0  0
  7 13  2  0  0  0  0
  7 14  1  0  0  0  0
  8 25  1  0  0  0  0
 11 21  1  0  0  0  0
 11 26  1  0  0  0  0
 11 27  1  0  0  0  0
 12 22  1  0  0  0  0
 12 28  1  0  0  0  0
 12 29  1  0  0  0  0
 13 19  1  0  0  0  0
 13 30  1  0  0  0  0
 14 20  2  0  0  0  0
 14 31  1  0  0  0  0
 16 17  1  0  0  0  0
 16 32  1  0  0  0  0
 16 33  1  0  0  0  0
 17 18  1  0  0  0  0
 18 19  2  0  0  0  0
 18 20  1  0  0  0  0
 19 34  1  0  0  0  0
 20 35  1  0  0  0  0
 21 23  1  0  0  0  0
 21 36  1  0  0  0  0
 21 37  1  0  0  0  0
 22 23  1  0  0  0  0
 22 38  1  0  0  0  0
 22 39  1  0  0  0  0
 23 24  1  0  0  0  0
 23 40  1  0  0  0  0
 24 41  1  0  0  0  0
 24 42  1  0  0  0  0
 24 43  1  0  0  0  0
M  END
>  <$CLUSTER>
19

>  <INDEX>
8245

$$$$
Biofocus 112_4406_0049
  MOE2020           3D

 38 41  0  0  0  0  0  0  0  0999 V2000
   -0.5100   -0.5810    0.7890 N   0  0  0  0  0  0  0  0  0  0  0  0
   -1.6320   -0.6050   -0.0160 C   0  0  0  0  0  0  0  0  0  0  0  0
   -2.7830   -1.3240    0.5650 C   0  0  0  0  0  0  0  0  0  0  0  0
   -0.5430   -1.2040    2.0230 C   0  0  0  0  0  0  0  0  0  0  0  0
    0.7090    0.0180    0.5030 C   0  0  0  0  0  0  0  0  0  0  0  0
   -1.5370   -1.8370    2.5480 N   0  0  0  0  0  0  0  0  0  0  0  0
   -4.0750   -1.5320   -0.1750 C   0  0  0  0  0  0  0  0  0  0  0  0
   -2.6660   -1.8770    1.7730 C   0  0  0  0  0  0  0  0  0  0  0  0
    1.0090   -1.0230    2.8340 S   0  0  0  0  0  0  0  0  0  0  0  0
    1.6290   -0.1180    1.4740 C   0  0  0  0  0  0  0  0  0  0  0  0
   -5.2080   -1.2880    0.5310 N   0  0  0  0  0  0  0  0  0  0  0  0
   -1.7630   -0.1030   -1.1290 O   0  0  0  0  0  0  0  0  0  0  0  0
   -4.1020   -1.8850   -1.3500 O   0  0  0  0  0  0  0  0  0  0  0  0
    1.0110    0.7390   -0.7280 C   0  0  0  0  0  0  0  0  0  0  0  0
   -6.5640   -1.3600    0.2140 C   0  0  0  0  0  0  0  0  0  0  0  0
   -9.3140   -1.4800   -0.3480 C   0  0  0  0  0  0  0  0  0  0  0  0
  -10.9750   -1.5590   -0.7080 Cl  0  0  0  0  0  0  0  0  0  0  0  0
   -7.5120   -1.0410    1.1970 C   0  0  0  0  0  0  0  0  0  0  0  0
   -7.0110   -1.7410   -1.0560 C   0  0  0  0  0  0  0  0  0  0  0  0
   -8.3810   -1.7990   -1.3330 C   0  0  0  0  0  0  0  0  0  0  0  0
   -8.8790   -1.1000    0.9170 C   0  0  0  0  0  0  0  0  0  0  0  0
    1.5710    0.0650   -1.8220 C   0  0  0  0  0  0  0  0  0  0  0  0
    0.7980    2.1230   -0.8040 C   0  0  0  0  0  0  0  0  0  0  0  0
    1.1290    2.8190   -1.9690 C   0  0  0  0  0  0  0  0  0  0  0  0
    1.9000    0.7660   -2.9840 C   0  0  0  0  0  0  0  0  0  0  0  0
    1.6790    2.1410   -3.0570 C   0  0  0  0  0  0  0  0  0  0  0  0
   -3.5260   -2.3950    2.1700 H   0  0  0  0  0  0  0  0  0  0  0  0
    2.6300    0.2840    1.4200 H   0  0  0  0  0  0  0  0  0  0  0  0
   -5.0330   -0.9940    1.4810 H   0  0  0  0  0  0  0  0  0  0  0  0
   -7.1810   -0.7460    2.1820 H   0  0  0  0  0  0  0  0  0  0  0  0
   -6.2960   -1.9910   -1.8250 H   0  0  0  0  0  0  0  0  0  0  0  0
   -8.7180   -2.0930   -2.3160 H   0  0  0  0  0  0  0  0  0  0  0  0
   -9.5980   -0.8500    1.6830 H   0  0  0  0  0  0  0  0  0  0  0  0
    1.7480   -0.9990   -1.7660 H   0  0  0  0  0  0  0  0  0  0  0  0
    0.3780    2.6510    0.0390 H   0  0  0  0  0  0  0  0  0  0  0  0
    0.9590    3.8840   -2.0270 H   0  0  0  0  0  0  0  0  0  0  0  0
    2.3260    0.2430   -3.8270 H   0  0  0  0  0  0  0  0  0  0  0  0
    1.9340    2.6810   -3.9570 H   0  0  0  0  0  0  0  0  0  0  0  0
  1  2  1  0  0  0  0
  1  4  1  0  0  0  0
  1  5  1  0  0  0  0
  2  3  1  0  0  0  0
  2 12  2  0  0  0  0
  3  7  1  0  0  0  0
  3  8  2  0  0  0  0
  4  6  2  0  0  0  0
  4  9  1  0  0  0  0
  5 10  2  0  0  0  0
  5 14  1  0  0  0  0
  6  8  1  0  0  0  0
  7 11  1  0  0  0  0
  7 13  2  0  0  0  0
  8 27  1  0  0  0  0
  9 10  1  0  0  0  0
 10 28  1  0  0  0  0
 11 15  1  0  0  0  0
 11 29  1  0  0  0  0
 14 22  1  0  0  0  0
 14 23  2  0  0  0  0
 15 18  1  0  0  0  0
 15 19  2  0  0  0  0
 16 17  1  0  0  0  0
 16 20  2  0  0  0  0
 16 21  1  0  0  0  0
 18 21  2  0  0  0  0
 18 30  1  0  0  0  0
 19 20  1  0  0  0  0
 19 31  1  0  0  0  0
 20 32  1  0  0  0  0
 21 33  1  0  0  0  0
 22 25  2  0  0  0  0
 22 34  1  0  0  0  0
 23 24  1  0  0  0  0
 23 35  1  0  0  0  0
 24 26  2  0  0  0  0
 24 36  1  0  0  0  0
 25 26  1  0  0  0  0
 25 37  1  0  0  0  0
 26 38  1  0  0  0  0
M  END
>  <$CLUSTER>
20

>  <INDEX>
9589

$$$$
Life Chemicals F0636-0335
  MOE2020           3D

 37 40  0  0  0  0  0  0  0  0999 V2000
    0.4290   -0.2680   -0.1140 N   0  0  0  0  0  0  0  0  0  0  0  0
    0.5420    0.5760   -1.1940 C   0  0  0  0  0  0  0  0  0  0  0  0
   -0.5330    1.5810   -1.2870 C   0  0  0  0  0  0  0  0  0  0  0  0
   -0.6220   -0.1390    0.7700 C   0  0  0  0  0  0  0  0  0  0  0  0
   -1.5730    0.7310    0.7080 N   0  0  0  0  0  0  0  0  0  0  0  0
   -0.6370    2.5460   -2.4270 C   0  0  0  0  0  0  0  0  0  0  0  0
   -1.4920    1.5930   -0.3590 C   0  0  0  0  0  0  0  0  0  0  0  0
   -0.4800   -1.3600    2.0300 S   0  0  0  0  0  0  0  0  0  0  0  0
    1.3090   -1.2870    0.1890 C   0  0  0  0  0  0  0  0  0  0  0  0
    0.9870   -1.9770    1.2950 C   0  0  0  0  0  0  0  0  0  0  0  0
   -0.8910    3.8350   -2.0870 N   0  0  0  0  0  0  0  0  0  0  0  0
   -1.1320    6.2100   -4.9380 C   0  0  0  0  0  0  0  0  0  0  0  0
   -0.9620    5.0160   -4.2280 C   0  0  0  0  0  0  0  0  0  0  0  0
    1.4340    0.5490   -2.0390 O   0  0  0  0  0  0  0  0  0  0  0  0
   -1.3950    7.3990   -4.2620 C   0  0  0  0  0  0  0  0  0  0  0  0
   -1.0540    5.0030   -2.8330 C   0  0  0  0  0  0  0  0  0  0  0  0
   -0.4890    2.1960   -3.5950 O   0  0  0  0  0  0  0  0  0  0  0  0
   -0.9900    6.1290   -6.3210 O   0  0  0  0  0  0  0  0  0  0  0  0
   -1.6060    8.6080   -4.8990 O   0  0  0  0  0  0  0  0  0  0  0  0
   -1.4890    7.3990   -2.8740 C   0  0  0  0  0  0  0  0  0  0  0  0
   -1.3200    6.2080   -2.1630 C   0  0  0  0  0  0  0  0  0  0  0  0
    2.4500   -1.5320   -0.6520 C   0  0  0  0  0  0  0  0  0  0  0  0
   -0.8290    7.4380   -6.8960 C   0  0  0  0  0  0  0  0  0  0  0  0
   -1.8360    8.4180   -6.3070 C   0  0  0  0  0  0  0  0  0  0  0  0
   -2.2660    2.3400   -0.4540 H   0  0  0  0  0  0  0  0  0  0  0  0
    1.5590   -2.8070    1.6830 H   0  0  0  0  0  0  0  0  0  0  0  0
   -0.9800    3.9780   -1.0910 H   0  0  0  0  0  0  0  0  0  0  0  0
   -0.7580    4.0990   -4.7610 H   0  0  0  0  0  0  0  0  0  0  0  0
   -1.6920    8.3190   -2.3460 H   0  0  0  0  0  0  0  0  0  0  0  0
   -1.3950    6.2140   -1.0860 H   0  0  0  0  0  0  0  0  0  0  0  0
    2.4550   -0.8170   -1.4750 H   0  0  0  0  0  0  0  0  0  0  0  0
    2.3960   -2.5450   -1.0510 H   0  0  0  0  0  0  0  0  0  0  0  0
    3.3630   -1.4200   -0.0670 H   0  0  0  0  0  0  0  0  0  0  0  0
   -0.9800    7.3750   -7.9740 H   0  0  0  0  0  0  0  0  0  0  0  0
    0.1800    7.7960   -6.6910 H   0  0  0  0  0  0  0  0  0  0  0  0
   -1.7410    9.3770   -6.8170 H   0  0  0  0  0  0  0  0  0  0  0  0
   -2.8430    8.0270   -6.4540 H   0  0  0  0  0  0  0  0  0  0  0  0
  1  2  1  0  0  0  0
  1  4  1  0  0  0  0
  1  9  1  0  0  0  0
  2  3  1  0  0  0  0
  2 14  2  0  0  0  0
  3  6  1  0  0  0  0
  3  7  2  0  0  0  0
  4  5  2  0  0  0  0
  4  8  1  0  0  0  0
  5  7  1  0  0  0  0
  6 11  1  0  0  0  0
  6 17  2  0  0  0  0
  7 25  1  0  0  0  0
  8 10  1  0  0  0  0
  9 10  2  0  0  0  0
  9 22  1  0  0  0  0
 10 26  1  0  0  0  0
 11 16  1  0  0  0  0
 11 27  1  0  0  0  0
 12 13  2  0  0  0  0
 12 15  1  0  0  0  0
 12 18  1  0  0  0  0
 13 16  1  0  0  0  0
 13 28  1  0  0  0  0
 15 19  1  0  0  0  0
 15 20  2  0  0  0  0
 16 21  2  0  0  0  0
 18 23  1  0  0  0  0
 19 24  1  0  0  0  0
 20 21  1  0  0  0  0
 20 29  1  0  0  0  0
 21 30  1  0  0  0  0
 22 31  1  0  0  0  0
 22 32  1  0  0  0  0
 22 33  1  0  0  0  0
 23 24  1  0  0  0  0
 23 34  1  0  0  0  0
 23 35  1  0  0  0  0
 24 36  1  0  0  0  0
 24 37  1  0  0  0  0
M  END
>  <$CLUSTER>
21

>  <INDEX>
279571

$$$$
Biofocus 119_0552_0135
  MOE2020           3D

 53 56  0  0  0  0  0  0  0  0999 V2000
   -0.4780    0.1000    1.2190 N   0  0  0  0  0  0  0  0  0  0  0  0
   -0.0020   -0.0280   -0.0680 C   0  0  0  0  0  0  0  0  0  0  0  0
   -1.5870   -0.3970    1.8870 C   0  0  0  0  0  0  0  0  0  0  0  0
    0.4040    0.9060    1.8920 C   0  0  0  0  0  0  0  0  0  0  0  0
   -1.7660   -0.0700    3.1880 C   0  0  0  0  0  0  0  0  0  0  0  0
    1.4040    1.3050    1.1480 N   0  0  0  0  0  0  0  0  0  0  0  0
   -0.8860    0.7480    3.8990 N   0  0  0  0  0  0  0  0  0  0  0  0
   -0.6530   -0.7800   -1.0250 N   0  0  0  0  0  0  0  0  0  0  0  0
    1.1580    0.7270   -0.0770 C   0  0  0  0  0  0  0  0  0  0  0  0
   -0.1790   -0.9130   -2.3220 C   0  0  0  0  0  0  0  0  0  0  0  0
    0.1570    1.2150    3.2700 C   0  0  0  0  0  0  0  0  0  0  0  0
   -2.9530   -0.5840    3.9500 C   0  0  0  0  0  0  0  0  0  0  0  0
   -4.2380   -0.3050    3.4930 C   0  0  0  0  0  0  0  0  0  0  0  0
   -5.3390   -0.7960    4.1980 C   0  0  0  0  0  0  0  0  0  0  0  0
   -6.6690   -0.5070    3.7410 N   0  0  0  0  0  0  0  0  0  0  0  0
    0.8340   -0.4140   -2.8030 O   0  0  0  0  0  0  0  0  0  0  0  0
   -1.0840   -1.7890   -3.1500 C   0  0  0  0  0  0  0  0  0  0  0  0
   -0.6190   -1.9730   -4.5860 C   0  0  0  0  0  0  0  0  0  0  0  0
    0.2670   -3.0030   -4.9080 C   0  0  0  0  0  0  0  0  0  0  0  0
    0.7290   -3.1440   -6.2170 C   0  0  0  0  0  0  0  0  0  0  0  0
    1.5900   -4.1290   -6.6570 O   0  0  0  0  0  0  0  0  0  0  0  0
   -2.7540   -1.3510    5.0880 C   0  0  0  0  0  0  0  0  0  0  0  0
   -5.1490   -1.5640    5.3460 C   0  0  0  0  0  0  0  0  0  0  0  0
   -3.8580   -1.8410    5.7910 C   0  0  0  0  0  0  0  0  0  0  0  0
   -0.5450   -1.2050   -6.8780 C   0  0  0  0  0  0  0  0  0  0  0  0
   -7.8890   -0.9700    4.4040 C   0  0  0  0  0  0  0  0  0  0  0  0
   -6.8680    0.3000    2.5360 C   0  0  0  0  0  0  0  0  0  0  0  0
   -1.0080   -1.0620   -5.5690 C   0  0  0  0  0  0  0  0  0  0  0  0
    0.3220   -2.2460   -7.2010 C   0  0  0  0  0  0  0  0  0  0  0  0
    2.0350   -5.0760   -5.6930 C   0  0  0  0  0  0  0  0  0  0  0  0
   -2.2950   -1.0340    1.3780 H   0  0  0  0  0  0  0  0  0  0  0  0
   -1.5090   -1.2520   -0.7710 H   0  0  0  0  0  0  0  0  0  0  0  0
    1.7940    0.8480   -0.9410 H   0  0  0  0  0  0  0  0  0  0  0  0
    0.8510    1.8500    3.8000 H   0  0  0  0  0  0  0  0  0  0  0  0
   -4.3820    0.2860    2.6010 H   0  0  0  0  0  0  0  0  0  0  0  0
   -2.0770   -1.3390   -3.1660 H   0  0  0  0  0  0  0  0  0  0  0  0
   -1.1370   -2.7700   -2.6780 H   0  0  0  0  0  0  0  0  0  0  0  0
    0.5950   -3.6910   -4.1430 H   0  0  0  0  0  0  0  0  0  0  0  0
   -1.7520   -1.5680    5.4290 H   0  0  0  0  0  0  0  0  0  0  0  0
   -6.0010   -1.9440    5.8900 H   0  0  0  0  0  0  0  0  0  0  0  0
   -3.7100   -2.4350    6.6810 H   0  0  0  0  0  0  0  0  0  0  0  0
   -0.8590   -0.5080   -7.6410 H   0  0  0  0  0  0  0  0  0  0  0  0
   -7.6240   -1.5570    5.2830 H   0  0  0  0  0  0  0  0  0  0  0  0
   -8.4650   -1.5870    3.7150 H   0  0  0  0  0  0  0  0  0  0  0  0
   -8.4860   -0.1100    4.7080 H   0  0  0  0  0  0  0  0  0  0  0  0
   -5.8990    0.5880    2.1280 H   0  0  0  0  0  0  0  0  0  0  0  0
   -7.4370    1.1950    2.7880 H   0  0  0  0  0  0  0  0  0  0  0  0
   -7.4160   -0.2820    1.7950 H   0  0  0  0  0  0  0  0  0  0  0  0
   -1.6680   -0.2450   -5.3170 H   0  0  0  0  0  0  0  0  0  0  0  0
    0.6790   -2.3570   -8.2140 H   0  0  0  0  0  0  0  0  0  0  0  0
    2.7040   -5.7920   -6.1690 H   0  0  0  0  0  0  0  0  0  0  0  0
    1.1760   -5.6020   -5.2770 H   0  0  0  0  0  0  0  0  0  0  0  0
    2.5660   -4.5590   -4.8940 H   0  0  0  0  0  0  0  0  0  0  0  0
  1  2  1  0  0  0  0
  1  3  1  0  0  0  0
  1  4  1  0  0  0  0
  2  8  1  0  0  0  0
  2  9  2  0  0  0  0
  3  5  2  0  0  0  0
  3 31  1  0  0  0  0
  4  6  2  0  0  0  0
  4 11  1  0  0  0  0
  5  7  1  0  0  0  0
  5 12  1  0  0  0  0
  6  9  1  0  0  0  0
  7 11  2  0  0  0  0
  8 10  1  0  0  0  0
  8 32  1  0  0  0  0
  9 33  1  0  0  0  0
 10 16  2  0  0  0  0
 10 17  1  0  0  0  0
 11 34  1  0  0  0  0
 12 13  2  0  0  0  0
 12 22  1  0  0  0  0
 13 14  1  0  0  0  0
 13 35  1  0  0  0  0
 14 15  1  0  0  0  0
 14 23  2  0  0  0  0
 15 26  1  0  0  0  0
 15 27  1  0  0  0  0
 17 18  1  0  0  0  0
 17 36  1  0  0  0  0
 17 37  1  0  0  0  0
 18 19  2  0  0  0  0
 18 28  1  0  0  0  0
 19 20  1  0  0  0  0
 19 38  1  0  0  0  0
 20 21  1  0  0  0  0
 20 29  2  0  0  0  0
 21 30  1  0  0  0  0
 22 24  2  0  0  0  0
 22 39  1  0  0  0  0
 23 24  1  0  0  0  0
 23 40  1  0  0  0  0
 24 41  1  0  0  0  0
 25 28  2  0  0  0  0
 25 29  1  0  0  0  0
 25 42  1  0  0  0  0
 26 43  1  0  0  0  0
 26 44  1  0  0  0  0
 26 45  1  0  0  0  0
 27 46  1  0  0  0  0
 27 47  1  0  0  0  0
 27 48  1  0  0  0  0
 28 49  1  0  0  0  0
 29 50  1  0  0  0  0
 30 51  1  0  0  0  0
 30 52  1  0  0  0  0
 30 53  1  0  0  0  0
M  END
>  <$CLUSTER>
22

>  <INDEX>
10269

$$$$
ASDI 650008660
  MOE2020           3D

 36 39  0  0  0  0  0  0  0  0999 V2000
    0.7080    0.4430    0.3520 N   0  0  0  0  0  0  0  0  0  0  0  0
    1.1800   -0.0620   -0.8410 C   0  0  0  0  0  0  0  0  0  0  0  0
    0.3960   -0.7850   -1.6820 N   0  0  0  0  0  0  0  0  0  0  0  0
    1.6370    1.1310    1.0480 N   0  0  0  0  0  0  0  0  0  0  0  0
   -1.4450   -0.4920   -0.0650 C   0  0  0  0  0  0  0  0  0  0  0  0
    2.4990    0.3320   -0.9080 C   0  0  0  0  0  0  0  0  0  0  0  0
   -0.6120    0.2490    0.7830 C   0  0  0  0  0  0  0  0  0  0  0  0
   -0.8380   -0.9860   -1.3160 C   0  0  0  0  0  0  0  0  0  0  0  0
    2.7220    1.0590    0.2750 C   0  0  0  0  0  0  0  0  0  0  0  0
    3.3420    0.0630   -1.8950 C   0  0  0  0  0  0  0  0  0  0  0  0
   -2.7640   -0.7080    0.3250 C   0  0  0  0  0  0  0  0  0  0  0  0
    4.1100   -0.1530   -2.7420 N   0  0  0  0  0  0  0  0  0  0  0  0
   -3.7380   -1.4670   -0.4760 C   0  0  0  0  0  0  0  0  0  0  0  0
   -5.0040   -1.6980   -0.1100 C   0  0  0  0  0  0  0  0  0  0  0  0
   -3.2350   -0.2120    1.5020 N   0  0  0  0  0  0  0  0  0  0  0  0
   -1.0760    0.7620    1.9850 C   0  0  0  0  0  0  0  0  0  0  0  0
   -5.9510   -2.3970   -0.8160 N   0  0  0  0  0  0  0  0  0  0  0  0
   -2.3950    0.5000    2.2920 C   0  0  0  0  0  0  0  0  0  0  0  0
   -7.2920   -2.6720   -0.4860 C   0  0  0  0  0  0  0  0  0  0  0  0
   -9.9930   -3.2940    0.0530 C   0  0  0  0  0  0  0  0  0  0  0  0
  -11.9790   -3.7690    0.4180 I   0  0  0  0  0  0  0  0  0  0  0  0
   -8.0650   -3.4210   -1.3930 C   0  0  0  0  0  0  0  0  0  0  0  0
   -7.9110   -2.2430    0.6990 C   0  0  0  0  0  0  0  0  0  0  0  0
   -9.2490   -2.5520    0.9650 C   0  0  0  0  0  0  0  0  0  0  0  0
   -9.4020   -3.7290   -1.1280 C   0  0  0  0  0  0  0  0  0  0  0  0
   -1.4670   -1.5600   -1.9810 H   0  0  0  0  0  0  0  0  0  0  0  0
    3.6690    1.5100    0.5300 H   0  0  0  0  0  0  0  0  0  0  0  0
   -3.4080   -1.8650   -1.4240 H   0  0  0  0  0  0  0  0  0  0  0  0
   -5.3130   -1.2910    0.8420 H   0  0  0  0  0  0  0  0  0  0  0  0
   -0.4400    1.3350    2.6440 H   0  0  0  0  0  0  0  0  0  0  0  0
   -5.6400   -2.7690   -1.7020 H   0  0  0  0  0  0  0  0  0  0  0  0
   -2.7840    0.8870    3.2220 H   0  0  0  0  0  0  0  0  0  0  0  0
   -7.6150   -3.7650   -2.3130 H   0  0  0  0  0  0  0  0  0  0  0  0
   -7.3460   -1.6660    1.4160 H   0  0  0  0  0  0  0  0  0  0  0  0
   -9.7070   -2.2130    1.8830 H   0  0  0  0  0  0  0  0  0  0  0  0
   -9.9760   -4.3040   -1.8400 H   0  0  0  0  0  0  0  0  0  0  0  0
  1  2  1  0  0  0  0
  1  4  1  0  0  0  0
  1  7  1  0  0  0  0
  2  3  1  0  0  0  0
  2  6  2  0  0  0  0
  3  8  2  0  0  0  0
  4  9  2  0  0  0  0
  5  7  1  0  0  0  0
  5  8  1  0  0  0  0
  5 11  2  0  0  0  0
  6  9  1  0  0  0  0
  6 10  1  0  0  0  0
  7 16  2  0  0  0  0
  8 26  1  0  0  0  0
  9 27  1  0  0  0  0
 10 12  3  0  0  0  0
 11 13  1  0  0  0  0
 11 15  1  0  0  0  0
 13 14  2  0  0  0  0
 13 28  1  0  0  0  0
 14 17  1  0  0  0  0
 14 29  1  0  0  0  0
 15 18  2  0  0  0  0
 16 18  1  0  0  0  0
 16 30  1  0  0  0  0
 17 19  1  0  0  0  0
 17 31  1  0  0  0  0
 18 32  1  0  0  0  0
 19 22  1  0  0  0  0
 19 23  2  0  0  0  0
 20 21  1  0  0  0  0
 20 24  2  0  0  0  0
 20 25  1  0  0  0  0
 22 25  2  0  0  0  0
 22 33  1  0  0  0  0
 23 24  1  0  0  0  0
 23 34  1  0  0  0  0
 24 35  1  0  0  0  0
 25 36  1  0  0  0  0
M  END
>  <$CLUSTER>
23

>  <INDEX>
64226

$$$$
ASDI 150016433
  MOE2020           3D

 17 17  0  0  1  0  0  0  0  0999 V2000
    0.8940    1.4210   -1.1830 N   0  0  0  0  0  0  0  0  0  0  0  0
    0.3610    0.7280   -0.4110 C   0  0  0  0  0  0  0  0  0  0  0  0
   -0.3170   -0.1470    0.5770 C   0  0  3  0  0  0  0  0  0  0  0  0
   -1.5120   -0.8490   -0.0580 C   0  0  0  0  0  0  0  0  0  0  0  0
    0.5740   -1.1530    1.0760 O   0  0  0  0  0  0  0  0  0  0  0  0
   -2.8340   -0.4630    0.3090 C   0  0  0  0  0  0  0  0  0  0  0  0
   -1.3760   -1.8620   -1.0150 C   0  0  0  0  0  0  0  0  0  0  0  0
   -3.9460   -1.0770   -0.2710 C   0  0  0  0  0  0  0  0  0  0  0  0
   -2.4890   -2.4740   -1.5930 C   0  0  0  0  0  0  0  0  0  0  0  0
   -3.7740   -2.0820   -1.2210 C   0  0  0  0  0  0  0  0  0  0  0  0
   -0.6460    0.4920    1.3970 H   0  0  0  0  0  0  0  0  0  0  0  0
    0.8440   -1.6970    0.3320 H   0  0  0  0  0  0  0  0  0  0  0  0
   -2.9780    0.3140    1.0450 H   0  0  0  0  0  0  0  0  0  0  0  0
   -0.3870   -2.1770   -1.3130 H   0  0  0  0  0  0  0  0  0  0  0  0
   -4.9410   -0.7720    0.0170 H   0  0  0  0  0  0  0  0  0  0  0  0
   -2.3550   -3.2520   -2.3300 H   0  0  0  0  0  0  0  0  0  0  0  0
   -4.6350   -2.5560   -1.6680 H   0  0  0  0  0  0  0  0  0  0  0  0
  1  2  3  0  0  0  0
  2  3  1  0  0  0  0
  3  4  1  0  0  0  0
  3  5  1  0  0  0  0
  3 11  1  0  0  0  0
  4  6  2  0  0  0  0
  4  7  1  0  0  0  0
  5 12  1  0  0  0  0
  6  8  1  0  0  0  0
  6 13  1  0  0  0  0
  7  9  2  0  0  0  0
  7 14  1  0  0  0  0
  8 10  2  0  0  0  0
  8 15  1  0  0  0  0
  9 10  1  0  0  0  0
  9 16  1  0  0  0  0
 10 17  1  0  0  0  0
M  END
>  <$CLUSTER>
24

>  <INDEX>
14597

$$$$
Biofocus 152_5817_5814_4423
  MOE2020           3D

 44 47  0  0  0  0  0  0  0  0999 V2000
    0.9060   -0.2500    0.0810 C   0  0  0  0  0  0  0  0  0  0  0  0
   -0.2950    0.3530   -0.2690 N   0  0  0  0  0  0  0  0  0  0  0  0
   -1.2570   -0.1060    0.6300 C   0  0  0  0  0  0  0  0  0  0  0  0
   -0.7560   -0.9910    1.4610 N   0  0  0  0  0  0  0  0  0  0  0  0
    0.5690   -1.1060    1.1230 C   0  0  0  0  0  0  0  0  0  0  0  0
    2.2120   -0.0720   -0.5210 C   0  0  0  0  0  0  0  0  0  0  0  0
    2.5480    1.2290   -0.8320 N   0  0  0  0  0  0  0  0  0  0  0  0
    3.7910    3.8150   -0.2910 C   0  0  0  0  0  0  0  0  0  0  0  0
   -2.5810    0.4070    0.5000 C   0  0  0  0  0  0  0  0  0  0  0  0
   -0.6000    1.2420   -1.3040 C   0  0  0  0  0  0  0  0  0  0  0  0
    2.4020    3.4390    0.2420 C   0  0  0  0  0  0  0  0  0  0  0  0
    4.6100    2.5540   -0.5670 C   0  0  0  0  0  0  0  0  0  0  0  0
    1.6940    2.4180   -0.6490 C   0  0  0  0  0  0  0  0  0  0  0  0
    3.8620    1.5520   -1.4430 C   0  0  0  0  0  0  0  0  0  0  0  0
   -1.8540    1.7080   -1.4310 C   0  0  0  0  0  0  0  0  0  0  0  0
    3.0020   -0.9980   -0.6990 O   0  0  0  0  0  0  0  0  0  0  0  0
    3.7130    4.5720   -1.4940 O   0  0  0  0  0  0  0  0  0  0  0  0
    4.5110    4.5990    0.6540 O   0  0  0  0  0  0  0  0  0  0  0  0
   -2.8680    1.2780   -0.4850 C   0  0  0  0  0  0  0  0  0  0  0  0
    1.4410   -2.0370    1.8760 C   0  0  0  0  0  0  0  0  0  0  0  0
   -3.6220   -0.0460    1.4750 C   0  0  0  0  0  0  0  0  0  0  0  0
    4.0390    5.8940   -1.1540 C   0  0  0  0  0  0  0  0  0  0  0  0
    5.0290    5.7020   -0.0380 C   0  0  0  0  0  0  0  0  0  0  0  0
    0.1680    1.5520   -1.9970 H   0  0  0  0  0  0  0  0  0  0  0  0
    1.7910    4.3400    0.2950 H   0  0  0  0  0  0  0  0  0  0  0  0
    2.5130    3.0160    1.2400 H   0  0  0  0  0  0  0  0  0  0  0  0
    4.8490    2.0770    0.3840 H   0  0  0  0  0  0  0  0  0  0  0  0
    5.5330    2.8400   -1.0720 H   0  0  0  0  0  0  0  0  0  0  0  0
    0.7560    2.1200   -0.1810 H   0  0  0  0  0  0  0  0  0  0  0  0
    1.4890    2.8680   -1.6200 H   0  0  0  0  0  0  0  0  0  0  0  0
    3.7050    1.9830   -2.4320 H   0  0  0  0  0  0  0  0  0  0  0  0
    4.4520    0.6400   -1.5340 H   0  0  0  0  0  0  0  0  0  0  0  0
   -2.1040    2.3940   -2.2270 H   0  0  0  0  0  0  0  0  0  0  0  0
   -3.8720    1.6650   -0.5740 H   0  0  0  0  0  0  0  0  0  0  0  0
    2.4520   -1.9960    1.4710 H   0  0  0  0  0  0  0  0  0  0  0  0
    1.0540   -3.0520    1.7840 H   0  0  0  0  0  0  0  0  0  0  0  0
    1.4590   -1.7490    2.9270 H   0  0  0  0  0  0  0  0  0  0  0  0
   -3.1770   -0.7460    2.1830 H   0  0  0  0  0  0  0  0  0  0  0  0
   -4.4330   -0.5390    0.9380 H   0  0  0  0  0  0  0  0  0  0  0  0
   -4.0140    0.8160    2.0140 H   0  0  0  0  0  0  0  0  0  0  0  0
    3.1610    6.4420   -0.8130 H   0  0  0  0  0  0  0  0  0  0  0  0
    4.4900    6.4190   -1.9960 H   0  0  0  0  0  0  0  0  0  0  0  0
    6.0240    5.4880   -0.4290 H   0  0  0  0  0  0  0  0  0  0  0  0
    5.0720    6.5820    0.6030 H   0  0  0  0  0  0  0  0  0  0  0  0
  1  2  1  0  0  0  0
  1  5  2  0  0  0  0
  1  6  1  0  0  0  0
  2  3  1  0  0  0  0
  2 10  1  0  0  0  0
  3  4  2  0  0  0  0
  3  9  1  0  0  0  0
  4  5  1  0  0  0  0
  5 20  1  0  0  0  0
  6  7  1  0  0  0  0
  6 16  2  0  0  0  0
  7 13  1  0  0  0  0
  7 14  1  0  0  0  0
  8 11  1  0  0  0  0
  8 12  1  0  0  0  0
  8 17  1  0  0  0  0
  8 18  1  0  0  0  0
  9 19  2  0  0  0  0
  9 21  1  0  0  0  0
 10 15  2  0  0  0  0
 10 24  1  0  0  0  0
 11 13  1  0  0  0  0
 11 25  1  0  0  0  0
 11 26  1  0  0  0  0
 12 14  1  0  0  0  0
 12 27  1  0  0  0  0
 12 28  1  0  0  0  0
 13 29  1  0  0  0  0
 13 30  1  0  0  0  0
 14 31  1  0  0  0  0
 14 32  1  0  0  0  0
 15 19  1  0  0  0  0
 15 33  1  0  0  0  0
 17 22  1  0  0  0  0
 18 23  1  0  0  0  0
 19 34  1  0  0  0  0
 20 35  1  0  0  0  0
 20 36  1  0  0  0  0
 20 37  1  0  0  0  0
 21 38  1  0  0  0  0
 21 39  1  0  0  0  0
 21 40  1  0  0  0  0
 22 23  1  0  0  0  0
 22 41  1  0  0  0  0
 22 42  1  0  0  0  0
 23 43  1  0  0  0  0
 23 44  1  0  0  0  0
M  END
>  <$CLUSTER>
25

>  <INDEX>
14917

$$$$
Chemdiv 1648-3187
  MOE2020           3D

 32 33  0  0  0  0  0  0  0  0999 V2000
   -0.2820   -0.1410   -0.1780 C   0  0  0  0  0  0  0  0  0  0  0  0
   -1.5680    0.2280   -0.7030 N   0  3  0  0  0  0  0  0  0  0  0  0
    6.3440    3.2060    3.7950 C   0  0  0  0  0  0  0  0  0  0  0  0
    0.4930    0.8130    0.4780 C   0  0  0  0  0  0  0  0  0  0  0  0
    1.7400    0.4410    0.9850 C   0  0  0  0  0  0  0  0  0  0  0  0
    5.7720    1.9600    3.1250 C   0  0  0  0  0  0  0  0  0  0  0  0
    7.6480    3.2760    4.2270 C   0  0  0  0  0  0  0  0  0  0  0  0
    0.1530   -1.4560   -0.3490 C   0  0  0  0  0  0  0  0  0  0  0  0
    5.7460    4.4390    4.0970 C   0  0  0  0  0  0  0  0  0  0  0  0
    3.7430    1.1380    2.1730 N   0  0  0  0  0  0  0  0  0  0  0  0
   -2.5260    0.2460    0.0850 O   0  5  0  0  0  0  0  0  0  0  0  0
    7.8790    4.5000    4.7810 O   0  0  0  0  0  0  0  0  0  0  0  0
   -1.6410    0.4570   -1.9220 O   0  0  0  0  0  0  0  0  0  0  0  0
    6.7210    5.1970    4.6990 C   0  0  0  0  0  0  0  0  0  0  0  0
    2.1880   -0.8750    0.8250 C   0  0  0  0  0  0  0  0  0  0  0  0
    1.4000   -1.8190    0.1610 C   0  0  0  0  0  0  0  0  0  0  0  0
    4.3710    2.1700    2.7750 N   0  0  0  0  0  0  0  0  0  0  0  0
    2.5760    1.4210    1.6780 C   0  0  0  0  0  0  0  0  0  0  0  0
    6.4270    0.9700    2.9370 O   0  0  0  0  0  0  0  0  0  0  0  0
    0.0430    2.1070    0.6180 O   0  0  0  0  0  0  0  0  0  0  0  0
    2.0300   -3.5490   -0.0310 Br  0  0  0  0  0  0  0  0  0  0  0  0
    8.8010    2.3500    4.2180 C   0  0  0  0  0  0  0  0  0  0  0  0
   -0.4630   -2.1780   -0.8650 H   0  0  0  0  0  0  0  0  0  0  0  0
    4.7260    4.7330    3.8970 H   0  0  0  0  0  0  0  0  0  0  0  0
    6.5830    6.2070    5.0570 H   0  0  0  0  0  0  0  0  0  0  0  0
    3.1520   -1.1640    1.2180 H   0  0  0  0  0  0  0  0  0  0  0  0
    3.8970    3.0400    2.9720 H   0  0  0  0  0  0  0  0  0  0  0  0
    2.2050    2.4300    1.7830 H   0  0  0  0  0  0  0  0  0  0  0  0
    0.6440    2.6980    1.0770 H   0  0  0  0  0  0  0  0  0  0  0  0
    8.5070    1.4080    3.7560 H   0  0  0  0  0  0  0  0  0  0  0  0
    9.1270    2.1660    5.2420 H   0  0  0  0  0  0  0  0  0  0  0  0
    9.6190    2.7940    3.6500 H   0  0  0  0  0  0  0  0  0  0  0  0
  1  2  1  0  0  0  0
  1  4  2  0  0  0  0
  1  8  1  0  0  0  0
  2 11  1  0  0  0  0
  2 13  2  0  0  0  0
  3  6  1  0  0  0  0
  3  7  2  0  0  0  0
  3  9  1  0  0  0  0
  4  5  1  0  0  0  0
  4 20  1  0  0  0  0
  5 15  2  0  0  0  0
  5 18  1  0  0  0  0
  6 17  1  0  0  0  0
  6 19  2  0  0  0  0
  7 12  1  0  0  0  0
  7 22  1  0  0  0  0
  8 16  2  0  0  0  0
  8 23  1  0  0  0  0
  9 14  2  0  0  0  0
  9 24  1  0  0  0  0
 10 17  1  0  0  0  0
 10 18  2  0  0  0  0
 12 14  1  0  0  0  0
 14 25  1  0  0  0  0
 15 16  1  0  0  0  0
 15 26  1  0  0  0  0
 16 21  1  0  0  0  0
 17 27  1  0  0  0  0
 18 28  1  0  0  0  0
 20 29  1  0  0  0  0
 22 30  1  0  0  0  0
 22 31  1  0  0  0  0
 22 32  1  0  0  0  0
M  CHG  1   2   1
M  CHG  1  11  -1
M  END
>  <$CLUSTER>
26

>  <INDEX>
15343

$$$$
Biofocus 170_0148_0349
  MOE2020           3D

 50 53  0  0  1  0  0  0  0  0999 V2000
   -0.2550   -0.4520   -0.8220 N   0  0  0  0  0  0  0  0  0  0  0  0
    0.9790   -1.1400   -0.9900 C   0  0  0  0  0  0  0  0  0  0  0  0
   -0.1150    0.4690    0.2340 C   0  0  0  0  0  0  0  0  0  0  0  0
    1.8550   -0.6050   -0.0110 N   0  0  0  0  0  0  0  0  0  0  0  0
    1.1770    0.3690    0.7220 C   0  0  0  0  0  0  0  0  0  0  0  0
   -1.0150    1.3230    0.7360 N   0  0  0  0  0  0  0  0  0  0  0  0
   -1.6170    6.4350    4.0430 C   0  0  0  0  0  0  0  0  0  0  0  0
    1.6490    1.1060    1.7330 N   0  0  0  0  0  0  0  0  0  0  0  0
   -1.4630   -0.6620   -1.6060 C   0  0  2  0  0  0  0  0  0  0  0  0
   -0.5530    2.0770    1.7600 C   0  0  0  0  0  0  0  0  0  0  0  0
   -2.1130    5.1660    3.4500 C   0  0  0  0  0  0  0  0  0  0  0  0
   -1.1680    4.2860    2.9130 C   0  0  0  0  0  0  0  0  0  0  0  0
    1.2480   -2.0120   -1.8040 O   0  0  0  0  0  0  0  0  0  0  0  0
   -1.5570    3.0550    2.3450 C   0  0  0  0  0  0  0  0  0  0  0  0
   -2.5000    7.4920    4.0630 N   0  0  0  0  0  0  0  0  0  0  0  0
    0.7450    1.9710    2.2460 C   0  0  0  0  0  0  0  0  0  0  0  0
   -0.4710    6.5110    4.4750 O   0  0  0  0  0  0  0  0  0  0  0  0
   -1.8610    0.5830   -2.3970 C   0  0  0  0  0  0  0  0  0  0  0  0
   -3.4650    4.8390    3.4290 C   0  0  0  0  0  0  0  0  0  0  0  0
   -2.6200   -1.1830   -0.7550 C   0  0  0  0  0  0  0  0  0  0  0  0
   -2.9350    2.7550    2.3300 C   0  0  0  0  0  0  0  0  0  0  0  0
   -3.8770    3.6330    2.8670 C   0  0  0  0  0  0  0  0  0  0  0  0
   -3.8820    7.4640    3.5570 C   0  0  0  0  0  0  0  0  0  0  0  0
   -2.0980    8.7880    4.6270 C   0  0  0  0  0  0  0  0  0  0  0  0
   -1.9920    1.8250   -1.7400 C   0  0  0  0  0  0  0  0  0  0  0  0
   -2.1490    0.5160   -3.7640 C   0  0  0  0  0  0  0  0  0  0  0  0
   -2.5460    1.6570   -4.4680 C   0  0  0  0  0  0  0  0  0  0  0  0
   -2.3890    2.9640   -2.4440 C   0  0  0  0  0  0  0  0  0  0  0  0
   -2.6670    2.8790   -3.8080 C   0  0  0  0  0  0  0  0  0  0  0  0
    2.8150   -0.8840    0.1320 H   0  0  0  0  0  0  0  0  0  0  0  0
   -1.2270   -1.4390   -2.3330 H   0  0  0  0  0  0  0  0  0  0  0  0
   -0.1220    4.5540    2.9340 H   0  0  0  0  0  0  0  0  0  0  0  0
    1.0440    2.6060    3.0670 H   0  0  0  0  0  0  0  0  0  0  0  0
   -4.1930    5.5180    3.8470 H   0  0  0  0  0  0  0  0  0  0  0  0
   -2.8900   -0.4340   -0.0110 H   0  0  0  0  0  0  0  0  0  0  0  0
   -2.3160   -2.1010   -0.2520 H   0  0  0  0  0  0  0  0  0  0  0  0
   -3.4790   -1.3860   -1.3950 H   0  0  0  0  0  0  0  0  0  0  0  0
   -3.2680    1.8250    1.8930 H   0  0  0  0  0  0  0  0  0  0  0  0
   -4.9260    3.3770    2.8470 H   0  0  0  0  0  0  0  0  0  0  0  0
   -4.3420    8.4410    3.7030 H   0  0  0  0  0  0  0  0  0  0  0  0
   -4.4520    6.7090    4.0980 H   0  0  0  0  0  0  0  0  0  0  0  0
   -3.8750    7.2210    2.4940 H   0  0  0  0  0  0  0  0  0  0  0  0
   -2.9280    9.4900    4.5520 H   0  0  0  0  0  0  0  0  0  0  0  0
   -1.2430    9.1760    4.0730 H   0  0  0  0  0  0  0  0  0  0  0  0
   -1.8250    8.6590    5.6740 H   0  0  0  0  0  0  0  0  0  0  0  0
   -1.7830    1.8950   -0.6830 H   0  0  0  0  0  0  0  0  0  0  0  0
   -2.0640   -0.4280   -4.2820 H   0  0  0  0  0  0  0  0  0  0  0  0
   -2.7590    1.5920   -5.5250 H   0  0  0  0  0  0  0  0  0  0  0  0
   -2.4810    3.9110   -1.9320 H   0  0  0  0  0  0  0  0  0  0  0  0
   -2.9760    3.7590   -4.3530 H   0  0  0  0  0  0  0  0  0  0  0  0
  1  2  1  0  0  0  0
  1  3  1  0  0  0  0
  1  9  1  0  0  0  0
  2  4  1  0  0  0  0
  2 13  2  0  0  0  0
  3  5  2  0  0  0  0
  3  6  1  0  0  0  0
  4  5  1  0  0  0  0
  4 30  1  0  0  0  0
  5  8  1  0  0  0  0
  6 10  2  0  0  0  0
  7 11  1  0  0  0  0
  7 15  1  0  0  0  0
  7 17  2  0  0  0  0
  8 16  2  0  0  0  0
  9 18  1  0  0  0  0
  9 20  1  0  0  0  0
  9 31  1  0  0  0  0
 10 14  1  0  0  0  0
 10 16  1  0  0  0  0
 11 12  1  0  0  0  0
 11 19  2  0  0  0  0
 12 14  2  0  0  0  0
 12 32  1  0  0  0  0
 14 21  1  0  0  0  0
 15 23  1  0  0  0  0
 15 24  1  0  0  0  0
 16 33  1  0  0  0  0
 18 25  1  0  0  0  0
 18 26  2  0  0  0  0
 19 22  1  0  0  0  0
 19 34  1  0  0  0  0
 20 35  1  0  0  0  0
 20 36  1  0  0  0  0
 20 37  1  0  0  0  0
 21 22  2  0  0  0  0
 21 38  1  0  0  0  0
 22 39  1  0  0  0  0
 23 40  1  0  0  0  0
 23 41  1  0  0  0  0
 23 42  1  0  0  0  0
 24 43  1  0  0  0  0
 24 44  1  0  0  0  0
 24 45  1  0  0  0  0
 25 28  2  0  0  0  0
 25 46  1  0  0  0  0
 26 27  1  0  0  0  0
 26 47  1  0  0  0  0
 27 29  2  0  0  0  0
 27 48  1  0  0  0  0
 28 29  1  0  0  0  0
 28 49  1  0  0  0  0
 29 50  1  0  0  0  0
M  END
>  <$CLUSTER>
27

>  <INDEX>
15645

$$$$
Biofocus 170_4347_0164
  MOE2020           3D

 37 39  0  0  0  0  0  0  0  0999 V2000
   -0.8580    0.8040   -0.4500 N   0  0  0  0  0  0  0  0  0  0  0  0
   -0.1410    1.0000   -1.6590 C   0  0  0  0  0  0  0  0  0  0  0  0
   -0.2660   -0.2510    0.2640 C   0  0  0  0  0  0  0  0  0  0  0  0
    0.8960    0.0300   -1.6510 N   0  0  0  0  0  0  0  0  0  0  0  0
    0.8050   -0.7200   -0.4760 C   0  0  0  0  0  0  0  0  0  0  0  0
   -0.6170   -0.7630    1.4500 N   0  0  0  0  0  0  0  0  0  0  0  0
    1.5920   -1.7270   -0.0830 N   0  0  0  0  0  0  0  0  0  0  0  0
    0.1700   -1.7830    1.8620 C   0  0  0  0  0  0  0  0  0  0  0  0
   -0.2040   -2.3840    3.2050 C   0  0  0  0  0  0  0  0  0  0  0  0
    0.3810   -3.5020    5.3010 C   0  0  0  0  0  0  0  0  0  0  0  0
    0.7540   -2.9500    4.0720 C   0  0  0  0  0  0  0  0  0  0  0  0
   -0.3560    1.8270   -2.5330 O   0  0  0  0  0  0  0  0  0  0  0  0
    1.2460   -2.2530    1.1150 C   0  0  0  0  0  0  0  0  0  0  0  0
   -0.9530   -3.4970    5.6950 C   0  0  0  0  0  0  0  0  0  0  0  0
   -1.5470   -2.3850    3.6340 C   0  0  0  0  0  0  0  0  0  0  0  0
   -2.0040    1.5540    0.0110 C   0  0  0  0  0  0  0  0  0  0  0  0
   -1.9190   -2.9360    4.8620 C   0  0  0  0  0  0  0  0  0  0  0  0
    1.5570   -4.1850    6.3280 Cl  0  0  0  0  0  0  0  0  0  0  0  0
   -1.2230   -4.0460    6.8800 F   0  0  0  0  0  0  0  0  0  0  0  0
   -1.6060    2.6640    0.9690 C   0  0  0  0  0  0  0  0  0  0  0  0
   -2.3580    4.4630    2.3540 O   0  0  0  0  0  0  0  0  0  0  0  0
   -2.8040    3.4490    1.4670 C   0  0  0  0  0  0  0  0  0  0  0  0
   -3.4330    5.2390    2.8590 C   0  0  0  0  0  0  0  0  0  0  0  0
    1.5870   -0.0970   -2.3770 H   0  0  0  0  0  0  0  0  0  0  0  0
    1.7940   -2.9570    3.7810 H   0  0  0  0  0  0  0  0  0  0  0  0
    1.8300   -3.0720    1.5080 H   0  0  0  0  0  0  0  0  0  0  0  0
   -2.3050   -1.9500    2.9990 H   0  0  0  0  0  0  0  0  0  0  0  0
   -2.6870    0.8750    0.5220 H   0  0  0  0  0  0  0  0  0  0  0  0
   -2.5060    1.9950   -0.8500 H   0  0  0  0  0  0  0  0  0  0  0  0
   -2.9550   -2.9270    5.1660 H   0  0  0  0  0  0  0  0  0  0  0  0
   -0.9290    3.3460    0.4540 H   0  0  0  0  0  0  0  0  0  0  0  0
   -1.0950    2.2230    1.8250 H   0  0  0  0  0  0  0  0  0  0  0  0
   -3.4870    2.7800    1.9910 H   0  0  0  0  0  0  0  0  0  0  0  0
   -3.3190    3.9040    0.6210 H   0  0  0  0  0  0  0  0  0  0  0  0
   -3.0450    6.0020    3.5330 H   0  0  0  0  0  0  0  0  0  0  0  0
   -4.1240    4.5930    3.4010 H   0  0  0  0  0  0  0  0  0  0  0  0
   -3.9560    5.7180    2.0310 H   0  0  0  0  0  0  0  0  0  0  0  0
  1  2  1  0  0  0  0
  1  3  1  0  0  0  0
  1 16  1  0  0  0  0
  2  4  1  0  0  0  0
  2 12  2  0  0  0  0
  3  5  2  0  0  0  0
  3  6  1  0  0  0  0
  4  5  1  0  0  0  0
  4 24  1  0  0  0  0
  5  7  1  0  0  0  0
  6  8  2  0  0  0  0
  7 13  2  0  0  0  0
  8  9  1  0  0  0  0
  8 13  1  0  0  0  0
  9 11  2  0  0  0  0
  9 15  1  0  0  0  0
 10 11  1  0  0  0  0
 10 14  2  0  0  0  0
 10 18  1  0  0  0  0
 11 25  1  0  0  0  0
 13 26  1  0  0  0  0
 14 17  1  0  0  0  0
 14 19  1  0  0  0  0
 15 17  2  0  0  0  0
 15 27  1  0  0  0  0
 16 20  1  0  0  0  0
 16 28  1  0  0  0  0
 16 29  1  0  0  0  0
 17 30  1  0  0  0  0
 20 22  1  0  0  0  0
 20 31  1  0  0  0  0
 20 32  1  0  0  0  0
 21 22  1  0  0  0  0
 21 23  1  0  0  0  0
 22 33  1  0  0  0  0
 22 34  1  0  0  0  0
 23 35  1  0  0  0  0
 23 36  1  0  0  0  0
 23 37  1  0  0  0  0
M  END
>  <$CLUSTER>
28

>  <INDEX>
15736

$$$$
Biofocus 179_0146_0280
  MOE2020           3D

 40 43  0  0  0  0  0  0  0  0999 V2000
    1.5760    0.7110    1.9920 N   0  0  0  0  0  0  0  0  0  0  0  0
    1.3220   -0.0220    0.8250 C   0  0  0  0  0  0  0  0  0  0  0  0
    0.0170    0.2600    0.4630 C   0  0  0  0  0  0  0  0  0  0  0  0
    0.4860    1.4410    2.3600 N   0  0  0  0  0  0  0  0  0  0  0  0
    2.8240    0.6570    2.6520 C   0  0  0  0  0  0  0  0  0  0  0  0
   -0.4320    1.1700    1.4360 C   0  0  0  0  0  0  0  0  0  0  0  0
    2.2840   -0.8100    0.2630 N   0  0  0  0  0  0  0  0  0  0  0  0
    3.7810   -0.1220    2.1200 C   0  0  0  0  0  0  0  0  0  0  0  0
   -0.6600   -0.2820   -0.7020 C   0  0  0  0  0  0  0  0  0  0  0  0
    2.9690    1.4140    3.8020 N   0  0  0  0  0  0  0  0  0  0  0  0
    3.2840    1.8380    7.2860 S   0  0  0  0  0  0  0  0  0  0  0  0
    3.8810    2.4540    5.8050 C   0  0  0  0  0  0  0  0  0  0  0  0
    3.4240   -0.8440    0.8830 C   0  0  0  0  0  0  0  0  0  0  0  0
    3.2730    3.3960    7.9940 C   0  0  0  0  0  0  0  0  0  0  0  0
    4.0740    3.8140    5.8540 C   0  0  0  0  0  0  0  0  0  0  0  0
    3.7190    4.3620    7.1200 C   0  0  0  0  0  0  0  0  0  0  0  0
   -0.5190   -1.6270   -1.0710 C   0  0  0  0  0  0  0  0  0  0  0  0
   -1.4960    0.5460   -1.4660 C   0  0  0  0  0  0  0  0  0  0  0  0
    4.1460    1.5160    4.6400 C   0  0  0  0  0  0  0  0  0  0  0  0
   -2.0100   -1.2950   -2.9470 C   0  0  0  0  0  0  0  0  0  0  0  0
   -2.1640    0.0410   -2.5840 C   0  0  0  0  0  0  0  0  0  0  0  0
   -1.1890   -2.1290   -2.1890 C   0  0  0  0  0  0  0  0  0  0  0  0
   -2.7210   -1.6730   -4.0610 O   0  0  0  0  0  0  0  0  0  0  0  0
   -2.6000   -3.0290   -4.4730 C   0  0  0  0  0  0  0  0  0  0  0  0
   -1.4210    1.6050    1.4340 H   0  0  0  0  0  0  0  0  0  0  0  0
    4.7570   -0.2150    2.5720 H   0  0  0  0  0  0  0  0  0  0  0  0
    2.1650    1.9550    4.0880 H   0  0  0  0  0  0  0  0  0  0  0  0
    4.1920   -1.4660    0.4480 H   0  0  0  0  0  0  0  0  0  0  0  0
    2.9540    3.5980    9.0060 H   0  0  0  0  0  0  0  0  0  0  0  0
    4.4510    4.3990    5.0280 H   0  0  0  0  0  0  0  0  0  0  0  0
    3.7910    5.4110    7.3650 H   0  0  0  0  0  0  0  0  0  0  0  0
    0.1120   -2.2800   -0.4870 H   0  0  0  0  0  0  0  0  0  0  0  0
   -1.6240    1.5820   -1.1880 H   0  0  0  0  0  0  0  0  0  0  0  0
    4.9770    1.9020    4.0490 H   0  0  0  0  0  0  0  0  0  0  0  0
    4.4010    0.5280    5.0240 H   0  0  0  0  0  0  0  0  0  0  0  0
   -2.8010    0.6880   -3.1680 H   0  0  0  0  0  0  0  0  0  0  0  0
   -1.0710   -3.1660   -2.4670 H   0  0  0  0  0  0  0  0  0  0  0  0
   -3.2100   -3.1950   -5.3610 H   0  0  0  0  0  0  0  0  0  0  0  0
   -2.9410   -3.6840   -3.6710 H   0  0  0  0  0  0  0  0  0  0  0  0
   -1.5570   -3.2470   -4.7020 H   0  0  0  0  0  0  0  0  0  0  0  0
  1  2  1  0  0  0  0
  1  4  1  0  0  0  0
  1  5  1  0  0  0  0
  2  3  2  0  0  0  0
  2  7  1  0  0  0  0
  3  6  1  0  0  0  0
  3  9  1  0  0  0  0
  4  6  2  0  0  0  0
  5  8  2  0  0  0  0
  5 10  1  0  0  0  0
  6 25  1  0  0  0  0
  7 13  2  0  0  0  0
  8 13  1  0  0  0  0
  8 26  1  0  0  0  0
  9 17  1  0  0  0  0
  9 18  2  0  0  0  0
 10 19  1  0  0  0  0
 10 27  1  0  0  0  0
 11 12  1  0  0  0  0
 11 14  1  0  0  0  0
 12 15  2  0  0  0  0
 12 19  1  0  0  0  0
 13 28  1  0  0  0  0
 14 16  2  0  0  0  0
 14 29  1  0  0  0  0
 15 16  1  0  0  0  0
 15 30  1  0  0  0  0
 16 31  1  0  0  0  0
 17 22  2  0  0  0  0
 17 32  1  0  0  0  0
 18 21  1  0  0  0  0
 18 33  1  0  0  0  0
 19 34  1  0  0  0  0
 19 35  1  0  0  0  0
 20 21  2  0  0  0  0
 20 22  1  0  0  0  0
 20 23  1  0  0  0  0
 21 36  1  0  0  0  0
 22 37  1  0  0  0  0
 23 24  1  0  0  0  0
 24 38  1  0  0  0  0
 24 39  1  0  0  0  0
 24 40  1  0  0  0  0
M  END
>  <$CLUSTER>
29

>  <INDEX>
16953

$$$$
Asinex BAS 01074185
  MOE2020           3D

 39 41  0  0  0  0  0  0  0  0999 V2000
   -3.7360   -0.2210    1.6520 N   0  3  0  0  0  0  0  0  0  0  0  0
   -4.7030   -0.9050    0.9850 C   0  0  0  0  0  0  0  0  0  0  0  0
   -2.3000   -0.4780    1.4190 C   0  0  0  0  0  0  0  0  0  0  0  0
   -1.6860    0.3660    0.3340 C   0  0  0  0  0  0  0  0  0  0  0  0
   -6.0500   -0.5820    1.2280 C   0  0  0  0  0  0  0  0  0  0  0  0
   -4.0490    0.8050    2.4800 C   0  0  0  0  0  0  0  0  0  0  0  0
   -0.2480    0.1960    0.0100 C   0  0  0  0  0  0  0  0  0  0  0  0
   -2.3600    1.1880   -0.2830 O   0  0  0  0  0  0  0  0  0  0  0  0
   -6.3840    0.4480    2.0950 C   0  0  0  0  0  0  0  0  0  0  0  0
   -5.3720    1.1500    2.7260 C   0  0  0  0  0  0  0  0  0  0  0  0
    0.3140    0.9850   -1.0020 C   0  0  0  0  0  0  0  0  0  0  0  0
    0.5540   -0.7270    0.6870 C   0  0  0  0  0  0  0  0  0  0  0  0
    1.6640    0.8500   -1.3300 C   0  0  0  0  0  0  0  0  0  0  0  0
    1.9050   -0.8580    0.3540 C   0  0  0  0  0  0  0  0  0  0  0  0
    2.4600   -0.0710   -0.6530 C   0  0  0  0  0  0  0  0  0  0  0  0
   -4.3730   -2.0410    0.0550 C   0  0  0  0  0  0  0  0  0  0  0  0
   -7.1760   -1.2560    0.6020 C   0  0  0  0  0  0  0  0  0  0  0  0
   -7.7230    0.8300    2.3580 C   0  0  0  0  0  0  0  0  0  0  0  0
    3.9040   -0.2120   -1.0070 C   0  0  0  0  0  0  0  0  0  0  0  0
   -8.4980   -0.8900    0.8590 C   0  0  0  0  0  0  0  0  0  0  0  0
   -8.7710    0.1530    1.7370 C   0  0  0  0  0  0  0  0  0  0  0  0
   -2.1810   -1.5260    1.1440 H   0  0  0  0  0  0  0  0  0  0  0  0
   -1.7640   -0.2830    2.3480 H   0  0  0  0  0  0  0  0  0  0  0  0
   -3.2570    1.3640    2.9560 H   0  0  0  0  0  0  0  0  0  0  0  0
   -5.6080    1.9580    3.4030 H   0  0  0  0  0  0  0  0  0  0  0  0
   -0.2990    1.7000   -1.5300 H   0  0  0  0  0  0  0  0  0  0  0  0
    0.1290   -1.3400    1.4680 H   0  0  0  0  0  0  0  0  0  0  0  0
    2.0920    1.4610   -2.1110 H   0  0  0  0  0  0  0  0  0  0  0  0
    2.5210   -1.5720    0.8790 H   0  0  0  0  0  0  0  0  0  0  0  0
   -3.2910   -2.1500   -0.0160 H   0  0  0  0  0  0  0  0  0  0  0  0
   -4.7830   -1.8320   -0.9330 H   0  0  0  0  0  0  0  0  0  0  0  0
   -4.8060   -2.9640    0.4410 H   0  0  0  0  0  0  0  0  0  0  0  0
   -6.9830   -2.0670   -0.0850 H   0  0  0  0  0  0  0  0  0  0  0  0
   -7.9310    1.6430    3.0380 H   0  0  0  0  0  0  0  0  0  0  0  0
    4.1500    0.4820   -1.8110 H   0  0  0  0  0  0  0  0  0  0  0  0
    4.1000   -1.2330   -1.3350 H   0  0  0  0  0  0  0  0  0  0  0  0
    4.5160    0.0120   -0.1330 H   0  0  0  0  0  0  0  0  0  0  0  0
   -9.3080   -1.4160    0.3760 H   0  0  0  0  0  0  0  0  0  0  0  0
   -9.7930    0.4380    1.9370 H   0  0  0  0  0  0  0  0  0  0  0  0
  1  2  2  0  0  0  0
  1  3  1  0  0  0  0
  1  6  1  0  0  0  0
  2  5  1  0  0  0  0
  2 16  1  0  0  0  0
  3  4  1  0  0  0  0
  3 22  1  0  0  0  0
  3 23  1  0  0  0  0
  4  7  1  0  0  0  0
  4  8  2  0  0  0  0
  5  9  2  0  0  0  0
  5 17  1  0  0  0  0
  6 10  2  0  0  0  0
  6 24  1  0  0  0  0
  7 11  2  0  0  0  0
  7 12  1  0  0  0  0
  9 10  1  0  0  0  0
  9 18  1  0  0  0  0
 10 25  1  0  0  0  0
 11 13  1  0  0  0  0
 11 26  1  0  0  0  0
 12 14  2  0  0  0  0
 12 27  1  0  0  0  0
 13 15  2  0  0  0  0
 13 28  1  0  0  0  0
 14 15  1  0  0  0  0
 14 29  1  0  0  0  0
 15 19  1  0  0  0  0
 16 30  1  0  0  0  0
 16 31  1  0  0  0  0
 16 32  1  0  0  0  0
 17 20  2  0  0  0  0
 17 33  1  0  0  0  0
 18 21  2  0  0  0  0
 18 34  1  0  0  0  0
 19 35  1  0  0  0  0
 19 36  1  0  0  0  0
 19 37  1  0  0  0  0
 20 21  1  0  0  0  0
 20 38  1  0  0  0  0
 21 39  1  0  0  0  0
M  CHG  1   1   1
M  END
>  <$CLUSTER>
30

>  <INDEX>
175207

$$$$
Bionet 8R-0635
  MOE2020           3D

 35 37  0  0  1  0  0  0  0  0999 V2000
    0.8840    0.8670    0.3620 N   0  0  0  0  0  0  0  0  0  0  0  0
    0.2220    0.7630   -0.8510 C   0  0  0  0  0  0  0  0  0  0  0  0
    1.8710    1.9020    0.6820 C   0  0  3  0  0  0  0  0  0  0  0  0
    0.4840   -0.1780    1.3080 C   0  0  0  0  0  0  0  0  0  0  0  0
   -0.6680   -0.3890   -0.7530 C   0  0  0  0  0  0  0  0  0  0  0  0
    1.3860    2.8120    1.8090 C   0  0  0  0  0  0  0  0  0  0  0  0
   -0.5220   -0.9480    0.5110 C   0  0  0  0  0  0  0  0  0  0  0  0
    2.2570    4.0120    2.0580 C   0  0  0  0  0  0  0  0  0  0  0  0
    0.3280    1.4730   -1.8400 O   0  0  0  0  0  0  0  0  0  0  0  0
    3.2380    1.2990    1.0070 C   0  0  0  0  0  0  0  0  0  0  0  0
    2.6440    4.1760    3.2540 O   0  0  0  0  0  0  0  0  0  0  0  0
    3.3610    0.2700    1.9610 C   0  0  0  0  0  0  0  0  0  0  0  0
    4.4010    1.7840    0.3920 C   0  0  0  0  0  0  0  0  0  0  0  0
    5.7590    0.2350    1.6600 C   0  0  0  0  0  0  0  0  0  0  0  0
    2.4960    4.7670    1.0690 O   0  5  0  0  0  0  0  0  0  0  0  0
    5.6530    1.2540    0.7160 C   0  0  0  0  0  0  0  0  0  0  0  0
    4.6130   -0.2590    2.2840 C   0  0  0  0  0  0  0  0  0  0  0  0
    6.9900   -0.2130    1.9100 F   0  0  0  0  0  0  0  0  0  0  0  0
   -1.5320   -0.9000   -1.6950 C   0  0  0  0  0  0  0  0  0  0  0  0
   -1.2620   -2.0680    0.8720 C   0  0  0  0  0  0  0  0  0  0  0  0
   -2.2820   -2.0270   -1.3430 C   0  0  0  0  0  0  0  0  0  0  0  0
   -2.1470   -2.6060   -0.0690 C   0  0  0  0  0  0  0  0  0  0  0  0
    1.9890    2.5170   -0.2100 H   0  0  0  0  0  0  0  0  0  0  0  0
    0.0360    0.2500    2.2050 H   0  0  0  0  0  0  0  0  0  0  0  0
    1.3310   -0.8040    1.5880 H   0  0  0  0  0  0  0  0  0  0  0  0
    1.3440    2.2250    2.7270 H   0  0  0  0  0  0  0  0  0  0  0  0
    0.3860    3.1640    1.5560 H   0  0  0  0  0  0  0  0  0  0  0  0
    2.4770   -0.1140    2.4480 H   0  0  0  0  0  0  0  0  0  0  0  0
    4.3290    2.5750   -0.3400 H   0  0  0  0  0  0  0  0  0  0  0  0
    6.5410    1.6350    0.2330 H   0  0  0  0  0  0  0  0  0  0  0  0
    4.6940   -1.0490    3.0160 H   0  0  0  0  0  0  0  0  0  0  0  0
   -1.6270   -0.4470   -2.6710 H   0  0  0  0  0  0  0  0  0  0  0  0
   -1.1570   -2.5110    1.8510 H   0  0  0  0  0  0  0  0  0  0  0  0
   -2.9710   -2.4560   -2.0560 H   0  0  0  0  0  0  0  0  0  0  0  0
   -2.7330   -3.4760    0.1860 H   0  0  0  0  0  0  0  0  0  0  0  0
  1  2  1  0  0  0  0
  1  3  1  0  0  0  0
  1  4  1  0  0  0  0
  2  5  1  0  0  0  0
  2  9  2  0  0  0  0
  3  6  1  0  0  0  0
  3 10  1  0  0  0  0
  3 23  1  0  0  0  0
  4  7  1  0  0  0  0
  4 24  1  0  0  0  0
  4 25  1  0  0  0  0
  5  7  2  0  0  0  0
  5 19  1  0  0  0  0
  6  8  1  0  0  0  0
  6 26  1  0  0  0  0
  6 27  1  0  0  0  0
  7 20  1  0  0  0  0
  8 11  2  0  0  0  0
  8 15  1  0  0  0  0
 10 12  1  0  0  0  0
 10 13  2  0  0  0  0
 12 17  2  0  0  0  0
 12 28  1  0  0  0  0
 13 16  1  0  0  0  0
 13 29  1  0  0  0  0
 14 16  2  0  0  0  0
 14 17  1  0  0  0  0
 14 18  1  0  0  0  0
 16 30  1  0  0  0  0
 17 31  1  0  0  0  0
 19 21  2  0  0  0  0
 19 32  1  0  0  0  0
 20 22  2  0  0  0  0
 20 33  1  0  0  0  0
 21 22  1  0  0  0  0
 21 34  1  0  0  0  0
 22 35  1  0  0  0  0
M  CHG  1  15  -1
M  END
>  <$CLUSTER>
31

>  <INDEX>
107196

$$$$
Chem T&I AMCLME-04217
  MOE2020           3D

 38 39  0  0  0  0  0  0  0  0999 V2000
   -1.4430    0.0360    0.1160 N   0  0  0  0  0  0  0  0  0  0  0  0
    1.4430   -0.0360   -0.1160 N   0  0  0  0  0  0  0  0  0  0  0  0
   -2.6840    0.2570    0.8570 C   0  0  0  0  0  0  0  0  0  0  0  0
   -0.6550   -1.0420    0.7260 C   0  0  0  0  0  0  0  0  0  0  0  0
   -0.6510    1.2710    0.0450 C   0  0  0  0  0  0  0  0  0  0  0  0
    0.6510   -1.2710   -0.0450 C   0  0  0  0  0  0  0  0  0  0  0  0
    0.6550    1.0420   -0.7260 C   0  0  0  0  0  0  0  0  0  0  0  0
   -3.6730    1.1740    0.1540 C   0  0  0  0  0  0  0  0  0  0  0  0
   -5.4060    2.8640   -1.2260 C   0  0  0  0  0  0  0  0  0  0  0  0
   -6.4820    3.8880   -2.0600 Cl  0  0  0  0  0  0  0  0  0  0  0  0
   -4.4320    3.4000   -0.3860 C   0  0  0  0  0  0  0  0  0  0  0  0
   -5.5020    1.4830   -1.3880 C   0  0  0  0  0  0  0  0  0  0  0  0
   -4.6260    0.6360   -0.7060 C   0  0  0  0  0  0  0  0  0  0  0  0
   -3.5550    2.5550    0.2970 C   0  0  0  0  0  0  0  0  0  0  0  0
    2.6840   -0.2570   -0.8570 C   0  0  0  0  0  0  0  0  0  0  0  0
    3.6890    0.8920   -0.7490 C   0  0  0  0  0  0  0  0  0  0  0  0
    5.0160    0.5450   -1.4100 C   0  0  0  0  0  0  0  0  0  0  0  0
   -2.4330    0.6990    1.8210 H   0  0  0  0  0  0  0  0  0  0  0  0
   -3.1650   -0.7080    1.0150 H   0  0  0  0  0  0  0  0  0  0  0  0
   -1.2410   -1.9610    0.7160 H   0  0  0  0  0  0  0  0  0  0  0  0
   -0.4190   -0.7720    1.7550 H   0  0  0  0  0  0  0  0  0  0  0  0
   -0.4150    1.6020    1.0560 H   0  0  0  0  0  0  0  0  0  0  0  0
   -1.2340    2.0400   -0.4620 H   0  0  0  0  0  0  0  0  0  0  0  0
    1.2340   -2.0400    0.4620 H   0  0  0  0  0  0  0  0  0  0  0  0
    0.4150   -1.6020   -1.0560 H   0  0  0  0  0  0  0  0  0  0  0  0
    0.4190    0.7720   -1.7550 H   0  0  0  0  0  0  0  0  0  0  0  0
    1.2410    1.9610   -0.7160 H   0  0  0  0  0  0  0  0  0  0  0  0
   -4.3550    4.4700   -0.2630 H   0  0  0  0  0  0  0  0  0  0  0  0
   -6.2550    1.0680   -2.0420 H   0  0  0  0  0  0  0  0  0  0  0  0
   -4.6880   -0.4330   -0.8450 H   0  0  0  0  0  0  0  0  0  0  0  0
   -2.7880    2.9700    0.9340 H   0  0  0  0  0  0  0  0  0  0  0  0
    2.4350   -0.3960   -1.9090 H   0  0  0  0  0  0  0  0  0  0  0  0
    3.1560   -1.1620   -0.4730 H   0  0  0  0  0  0  0  0  0  0  0  0
    3.8650    1.1090    0.3050 H   0  0  0  0  0  0  0  0  0  0  0  0
    3.2720    1.7730   -1.2360 H   0  0  0  0  0  0  0  0  0  0  0  0
    5.4420   -0.3360   -0.9290 H   0  0  0  0  0  0  0  0  0  0  0  0
    5.7040    1.3840   -1.3060 H   0  0  0  0  0  0  0  0  0  0  0  0
    4.8520    0.3380   -2.4680 H   0  0  0  0  0  0  0  0  0  0  0  0
  1  3  1  0  0  0  0
  1  4  1  0  0  0  0
  1  5  1  0  0  0  0
  2  6  1  0  0  0  0
  2  7  1  0  0  0  0
  2 15  1  0  0  0  0
  3  8  1  0  0  0  0
  3 18  1  0  0  0  0
  3 19  1  0  0  0  0
  4  6  1  0  0  0  0
  4 20  1  0  0  0  0
  4 21  1  0  0  0  0
  5  7  1  0  0  0  0
  5 22  1  0  0  0  0
  5 23  1  0  0  0  0
  6 24  1  0  0  0  0
  6 25  1  0  0  0  0
  7 26  1  0  0  0  0
  7 27  1  0  0  0  0
  8 13  2  0  0  0  0
  8 14  1  0  0  0  0
  9 10  1  0  0  0  0
  9 11  1  0  0  0  0
  9 12  2  0  0  0  0
 11 14  2  0  0  0  0
 11 28  1  0  0  0  0
 12 13  1  0  0  0  0
 12 29  1  0  0  0  0
 13 30  1  0  0  0  0
 14 31  1  0  0  0  0
 15 16  1  0  0  0  0
 15 32  1  0  0  0  0
 15 33  1  0  0  0  0
 16 17  1  0  0  0  0
 16 34  1  0  0  0  0
 16 35  1  0  0  0  0
 17 36  1  0  0  0  0
 17 37  1  0  0  0  0
 17 38  1  0  0  0  0
M  END
>  <$CLUSTER>
32

>  <INDEX>
507943

$$$$
Chemdiv 2081-1026
  MOE2020           3D

 31 32  0  0  0  0  0  0  0  0999 V2000
    0.3620    0.6510   -0.0820 N   0  3  0  0  0  0  0  0  0  0  0  0
   -2.8250   -6.6250    0.8180 C   0  0  0  0  0  0  0  0  0  0  0  0
   -1.7450   -5.5810    0.6790 C   0  0  0  0  0  0  0  0  0  0  0  0
   -2.2930   -4.3110    0.5400 N   0  0  0  0  0  0  0  0  0  0  0  0
   -0.2920   -0.6470    0.0810 C   0  0  0  0  0  0  0  0  0  0  0  0
   -1.6080   -3.0760    0.3850 C   0  0  0  0  0  0  0  0  0  0  0  0
   -1.7850   -0.6130    0.1000 C   0  0  0  0  0  0  0  0  0  0  0  0
   -2.3680   -1.8900    0.2580 C   0  0  0  0  0  0  0  0  0  0  0  0
   -2.8220   -7.7720    0.0160 C   0  0  0  0  0  0  0  0  0  0  0  0
    1.6040    0.6970   -0.1070 O   0  5  0  0  0  0  0  0  0  0  0  0
   -3.7800   -6.4680    1.8190 C   0  0  0  0  0  0  0  0  0  0  0  0
   -0.3660    1.6520   -0.1880 O   0  0  0  0  0  0  0  0  0  0  0  0
   -0.5610   -5.8990    0.6980 O   0  0  0  0  0  0  0  0  0  0  0  0
    0.4780   -1.7400    0.1970 C   0  0  0  0  0  0  0  0  0  0  0  0
   -0.2080   -2.9870    0.3530 C   0  0  0  0  0  0  0  0  0  0  0  0
   -3.8060   -8.7480    0.2140 C   0  0  0  0  0  0  0  0  0  0  0  0
   -4.7580   -7.4440    2.0100 C   0  0  0  0  0  0  0  0  0  0  0  0
   -1.6990   -8.0320   -1.2700 Cl  0  0  0  0  0  0  0  0  0  0  0  0
   -4.7710   -8.5840    1.2100 C   0  0  0  0  0  0  0  0  0  0  0  0
   -5.9310   -7.2280    3.2260 Cl  0  0  0  0  0  0  0  0  0  0  0  0
   -3.8750   -1.8940    0.2810 C   0  0  0  0  0  0  0  0  0  0  0  0
   -3.3020   -4.2600    0.5500 H   0  0  0  0  0  0  0  0  0  0  0  0
   -2.3610    0.2960    0.0030 H   0  0  0  0  0  0  0  0  0  0  0  0
   -3.7630   -5.5900    2.4480 H   0  0  0  0  0  0  0  0  0  0  0  0
    1.5560   -1.6820    0.1740 H   0  0  0  0  0  0  0  0  0  0  0  0
    0.3730   -3.8920    0.4500 H   0  0  0  0  0  0  0  0  0  0  0  0
   -3.8190   -9.6320   -0.4060 H   0  0  0  0  0  0  0  0  0  0  0  0
   -5.5270   -9.3410    1.3600 H   0  0  0  0  0  0  0  0  0  0  0  0
   -4.2340   -2.9160    0.4060 H   0  0  0  0  0  0  0  0  0  0  0  0
   -4.2540   -1.4880   -0.6570 H   0  0  0  0  0  0  0  0  0  0  0  0
   -4.2270   -1.2810    1.1110 H   0  0  0  0  0  0  0  0  0  0  0  0
  1  5  1  0  0  0  0
  1 10  1  0  0  0  0
  1 12  2  0  0  0  0
  2  3  1  0  0  0  0
  2  9  2  0  0  0  0
  2 11  1  0  0  0  0
  3  4  1  0  0  0  0
  3 13  2  0  0  0  0
  4  6  1  0  0  0  0
  4 22  1  0  0  0  0
  5  7  2  0  0  0  0
  5 14  1  0  0  0  0
  6  8  2  0  0  0  0
  6 15  1  0  0  0  0
  7  8  1  0  0  0  0
  7 23  1  0  0  0  0
  8 21  1  0  0  0  0
  9 16  1  0  0  0  0
  9 18  1  0  0  0  0
 11 17  2  0  0  0  0
 11 24  1  0  0  0  0
 14 15  2  0  0  0  0
 14 25  1  0  0  0  0
 15 26  1  0  0  0  0
 16 19  2  0  0  0  0
 16 27  1  0  0  0  0
 17 19  1  0  0  0  0
 17 20  1  0  0  0  0
 19 28  1  0  0  0  0
 21 29  1  0  0  0  0
 21 30  1  0  0  0  0
 21 31  1  0  0  0  0
M  CHG  1   1   1
M  CHG  1  10  -1
M  END
>  <$CLUSTER>
33

>  <INDEX>
20597

$$$$
Chem T&I NSB 0020467
  MOE2020           3D

 40 41  0  0  0  0  0  0  0  0999 V2000
    1.0820   -0.3340   -1.3440 C   0  0  0  0  0  0  0  0  0  0  0  0
    0.1720   -0.0520   -0.2310 C   0  0  0  0  0  0  0  0  0  0  0  0
    2.2920   -0.8400   -0.9860 N   0  0  0  0  0  0  0  0  0  0  0  0
    0.7440   -0.1180   -2.5050 O   0  0  0  0  0  0  0  0  0  0  0  0
   -0.7100   -1.0540    0.2050 C   0  0  0  0  0  0  0  0  0  0  0  0
    0.1920    1.2190    0.3660 C   0  0  0  0  0  0  0  0  0  0  0  0
    3.4070   -1.2280   -1.7520 C   0  0  0  0  0  0  0  0  0  0  0  0
    3.4350   -1.1410   -3.1470 C   0  0  0  0  0  0  0  0  0  0  0  0
    1.0920    2.1500   -0.1480 O   0  0  0  0  0  0  0  0  0  0  0  0
   -0.6640   -2.2760   -0.4610 O   0  0  0  0  0  0  0  0  0  0  0  0
    4.5720   -1.5430   -3.8560 C   0  0  0  0  0  0  0  0  0  0  0  0
   -1.5630    0.4870    1.8740 C   0  0  0  0  0  0  0  0  0  0  0  0
    5.6700   -2.1240   -1.7930 C   0  0  0  0  0  0  0  0  0  0  0  0
   -0.6870    1.4780    1.4290 C   0  0  0  0  0  0  0  0  0  0  0  0
   -1.5790   -0.7700    1.2700 C   0  0  0  0  0  0  0  0  0  0  0  0
    4.5360   -1.7240   -1.0830 C   0  0  0  0  0  0  0  0  0  0  0  0
    5.6880   -2.0330   -3.1820 C   0  0  0  0  0  0  0  0  0  0  0  0
    4.5920   -1.4260   -5.3780 C   0  0  0  0  0  0  0  0  0  0  0  0
   -1.5230   -3.3150    0.0270 C   0  0  0  0  0  0  0  0  0  0  0  0
    1.1520    3.4250    0.5040 C   0  0  0  0  0  0  0  0  0  0  0  0
    5.1200   -0.0740   -5.8330 C   0  0  0  0  0  0  0  0  0  0  0  0
    2.4120   -0.9590    0.0100 H   0  0  0  0  0  0  0  0  0  0  0  0
    2.5750   -0.7620   -3.6800 H   0  0  0  0  0  0  0  0  0  0  0  0
   -2.2350    0.6950    2.6940 H   0  0  0  0  0  0  0  0  0  0  0  0
    6.5320   -2.5040   -1.2650 H   0  0  0  0  0  0  0  0  0  0  0  0
   -0.6850    2.4480    1.9040 H   0  0  0  0  0  0  0  0  0  0  0  0
   -2.2630   -1.5280    1.6230 H   0  0  0  0  0  0  0  0  0  0  0  0
    4.5280   -1.7970   -0.0060 H   0  0  0  0  0  0  0  0  0  0  0  0
    6.5630   -2.3410   -3.7340 H   0  0  0  0  0  0  0  0  0  0  0  0
    3.5770   -1.5540   -5.7550 H   0  0  0  0  0  0  0  0  0  0  0  0
    5.2320   -2.2100   -5.7840 H   0  0  0  0  0  0  0  0  0  0  0  0
   -1.3890   -4.2110   -0.5790 H   0  0  0  0  0  0  0  0  0  0  0  0
   -2.5610   -2.9870   -0.0340 H   0  0  0  0  0  0  0  0  0  0  0  0
   -1.2720   -3.5370    1.0640 H   0  0  0  0  0  0  0  0  0  0  0  0
    1.8900    4.0530    0.0060 H   0  0  0  0  0  0  0  0  0  0  0  0
    1.4370    3.2870    1.5470 H   0  0  0  0  0  0  0  0  0  0  0  0
    0.1740    3.9040    0.4550 H   0  0  0  0  0  0  0  0  0  0  0  0
    4.4860    0.7170   -5.4320 H   0  0  0  0  0  0  0  0  0  0  0  0
    5.1120   -0.0290   -6.9220 H   0  0  0  0  0  0  0  0  0  0  0  0
    6.1400    0.0580   -5.4710 H   0  0  0  0  0  0  0  0  0  0  0  0
  1  2  1  0  0  0  0
  1  3  1  0  0  0  0
  1  4  2  0  0  0  0
  2  5  1  0  0  0  0
  2  6  2  0  0  0  0
  3  7  1  0  0  0  0
  3 22  1  0  0  0  0
  5 10  1  0  0  0  0
  5 15  2  0  0  0  0
  6  9  1  0  0  0  0
  6 14  1  0  0  0  0
  7  8  2  0  0  0  0
  7 16  1  0  0  0  0
  8 11  1  0  0  0  0
  8 23  1  0  0  0  0
  9 20  1  0  0  0  0
 10 19  1  0  0  0  0
 11 17  2  0  0  0  0
 11 18  1  0  0  0  0
 12 14  2  0  0  0  0
 12 15  1  0  0  0  0
 12 24  1  0  0  0  0
 13 16  2  0  0  0  0
 13 17  1  0  0  0  0
 13 25  1  0  0  0  0
 14 26  1  0  0  0  0
 15 27  1  0  0  0  0
 16 28  1  0  0  0  0
 17 29  1  0  0  0  0
 18 21  1  0  0  0  0
 18 30  1  0  0  0  0
 18 31  1  0  0  0  0
 19 32  1  0  0  0  0
 19 33  1  0  0  0  0
 19 34  1  0  0  0  0
 20 35  1  0  0  0  0
 20 36  1  0  0  0  0
 20 37  1  0  0  0  0
 21 38  1  0  0  0  0
 21 39  1  0  0  0  0
 21 40  1  0  0  0  0
M  END
>  <$CLUSTER>
34

>  <INDEX>
568798

$$$$
Biofocus 229_0146_0280
  MOE2020           3D

 41 44  0  0  0  0  0  0  0  0999 V2000
    0.8350    1.4040   -0.5320 N   0  0  0  0  0  0  0  0  0  0  0  0
   -0.1040    0.4000   -0.4840 C   0  0  0  0  0  0  0  0  0  0  0  0
    1.9190    1.4040    0.0250 N   0  3  0  0  0  0  0  0  0  0  0  0
    0.3720    2.4300   -1.3270 C   0  0  0  0  0  0  0  0  0  0  0  0
   -0.8070    2.1220   -1.8250 N   0  0  0  0  0  0  0  0  0  0  0  0
   -1.1000    0.8760   -1.3220 C   0  0  0  0  0  0  0  0  0  0  0  0
    2.7780    2.4320   -0.0630 C   0  0  0  0  0  0  0  0  0  0  0  0
    1.1890    3.5740   -1.4860 C   0  0  0  0  0  0  0  0  0  0  0  0
   -0.0170   -0.8530    0.2630 C   0  0  0  0  0  0  0  0  0  0  0  0
    2.3760    3.5850   -0.8650 C   0  0  0  0  0  0  0  0  0  0  0  0
    6.0310    2.5880    3.3880 S   0  0  0  0  0  0  0  0  0  0  0  0
    5.8750    1.7950    1.8780 C   0  0  0  0  0  0  0  0  0  0  0  0
    3.9750    2.4860    0.5260 N   0  0  0  0  0  0  0  0  0  0  0  0
    7.7350    2.6380    3.2520 C   0  0  0  0  0  0  0  0  0  0  0  0
    7.1000    1.5630    1.2940 C   0  0  0  0  0  0  0  0  0  0  0  0
    8.1770    2.0560    2.0850 C   0  0  0  0  0  0  0  0  0  0  0  0
   -0.2730   -2.0730   -0.3800 C   0  0  0  0  0  0  0  0  0  0  0  0
    0.2910   -0.8610    1.6320 C   0  0  0  0  0  0  0  0  0  0  0  0
    4.5060    1.3990    1.3620 C   0  0  0  0  0  0  0  0  0  0  0  0
    0.1130   -3.2710    1.6840 C   0  0  0  0  0  0  0  0  0  0  0  0
    0.3580   -2.0640    2.3360 C   0  0  0  0  0  0  0  0  0  0  0  0
   -0.2050   -3.2750    0.3280 C   0  0  0  0  0  0  0  0  0  0  0  0
    0.2050   -4.3850    2.4860 O   0  0  0  0  0  0  0  0  0  0  0  0
   -0.0400   -5.6440    1.8700 C   0  0  0  0  0  0  0  0  0  0  0  0
    2.1820    0.5980    0.5750 H   0  0  0  0  0  0  0  0  0  0  0  0
   -2.0030    0.3310   -1.5540 H   0  0  0  0  0  0  0  0  0  0  0  0
    0.8660    4.4110   -2.0880 H   0  0  0  0  0  0  0  0  0  0  0  0
    3.0300    4.4390   -0.9570 H   0  0  0  0  0  0  0  0  0  0  0  0
    4.5420    3.3110    0.3910 H   0  0  0  0  0  0  0  0  0  0  0  0
    8.3870    3.0740    3.9940 H   0  0  0  0  0  0  0  0  0  0  0  0
    7.2290    1.0640    0.3450 H   0  0  0  0  0  0  0  0  0  0  0  0
    9.2170    1.9820    1.8030 H   0  0  0  0  0  0  0  0  0  0  0  0
   -0.5250   -2.0830   -1.4300 H   0  0  0  0  0  0  0  0  0  0  0  0
    0.4780    0.0710    2.1450 H   0  0  0  0  0  0  0  0  0  0  0  0
    3.8350    1.2240    2.2030 H   0  0  0  0  0  0  0  0  0  0  0  0
    4.5890    0.4890    0.7680 H   0  0  0  0  0  0  0  0  0  0  0  0
    0.6000   -2.0600    3.3880 H   0  0  0  0  0  0  0  0  0  0  0  0
   -0.3990   -4.2100   -0.1770 H   0  0  0  0  0  0  0  0  0  0  0  0
    0.0640   -6.4370    2.6100 H   0  0  0  0  0  0  0  0  0  0  0  0
    0.6790   -5.8010    1.0660 H   0  0  0  0  0  0  0  0  0  0  0  0
   -1.0510   -5.6580    1.4620 H   0  0  0  0  0  0  0  0  0  0  0  0
  1  2  1  0  0  0  0
  1  3  1  0  0  0  0
  1  4  1  0  0  0  0
  2  6  2  0  0  0  0
  2  9  1  0  0  0  0
  3  7  2  0  0  0  0
  3 25  1  0  0  0  0
  4  5  2  0  0  0  0
  4  8  1  0  0  0  0
  5  6  1  0  0  0  0
  6 26  1  0  0  0  0
  7 10  1  0  0  0  0
  7 13  1  0  0  0  0
  8 10  2  0  0  0  0
  8 27  1  0  0  0  0
  9 17  1  0  0  0  0
  9 18  2  0  0  0  0
 10 28  1  0  0  0  0
 11 12  1  0  0  0  0
 11 14  1  0  0  0  0
 12 15  2  0  0  0  0
 12 19  1  0  0  0  0
 13 19  1  0  0  0  0
 13 29  1  0  0  0  0
 14 16  2  0  0  0  0
 14 30  1  0  0  0  0
 15 16  1  0  0  0  0
 15 31  1  0  0  0  0
 16 32  1  0  0  0  0
 17 22  2  0  0  0  0
 17 33  1  0  0  0  0
 18 21  1  0  0  0  0
 18 34  1  0  0  0  0
 19 35  1  0  0  0  0
 19 36  1  0  0  0  0
 20 21  2  0  0  0  0
 20 22  1  0  0  0  0
 20 23  1  0  0  0  0
 21 37  1  0  0  0  0
 22 38  1  0  0  0  0
 23 24  1  0  0  0  0
 24 39  1  0  0  0  0
 24 40  1  0  0  0  0
 24 41  1  0  0  0  0
M  CHG  1   3   1
M  END
>  <$CLUSTER>
35

>  <INDEX>
22101

$$$$
Bionet 2K-538S
  MOE2020           3D

 28 29  0  0  0  0  0  0  0  0999 V2000
   -1.4340    0.2800    0.9880 S   0  0  0  0  0  0  0  0  0  0  0  0
    0.0300   -0.1460    0.0810 C   0  0  0  0  0  0  0  0  0  0  0  0
    1.7900    0.4030   -1.4460 N   0  0  0  0  0  0  0  0  0  0  0  0
    0.6690    0.7620   -0.7690 C   0  0  0  0  0  0  0  0  0  0  0  0
    1.7060   -1.7900   -0.4460 C   0  0  0  0  0  0  0  0  0  0  0  0
    2.2790   -0.8460   -1.2730 C   0  0  0  0  0  0  0  0  0  0  0  0
    0.5580   -1.4290    0.2450 C   0  0  0  0  0  0  0  0  0  0  0  0
    2.3090   -3.0640   -0.3410 C   0  0  0  0  0  0  0  0  0  0  0  0
   -2.7170    0.2270   -0.2360 C   0  0  0  0  0  0  0  0  0  0  0  0
    2.7730   -4.1250   -0.2270 N   0  0  0  0  0  0  0  0  0  0  0  0
   -1.7000   -0.7830    1.9390 O   0  0  0  0  0  0  0  0  0  0  0  0
   -1.2890    1.6470    1.4470 O   0  0  0  0  0  0  0  0  0  0  0  0
    0.2010    2.0480   -0.9730 N   0  0  0  0  0  0  0  0  0  0  0  0
   -2.8020    1.2990   -1.1390 C   0  0  0  0  0  0  0  0  0  0  0  0
   -3.6210   -0.8130   -0.2630 C   0  0  0  0  0  0  0  0  0  0  0  0
    3.4180   -1.1650   -1.9800 O   0  0  0  0  0  0  0  0  0  0  0  0
   -4.7290    0.2350   -2.1400 C   0  0  0  0  0  0  0  0  0  0  0  0
   -4.6320   -0.8130   -1.2240 C   0  0  0  0  0  0  0  0  0  0  0  0
   -3.8160    1.2900   -2.0970 C   0  0  0  0  0  0  0  0  0  0  0  0
   -5.7240    0.1530   -3.0250 F   0  0  0  0  0  0  0  0  0  0  0  0
    0.0760   -2.1350    0.9050 H   0  0  0  0  0  0  0  0  0  0  0  0
    0.6900    2.6700   -1.6010 H   0  0  0  0  0  0  0  0  0  0  0  0
   -0.6290    2.3650   -0.4930 H   0  0  0  0  0  0  0  0  0  0  0  0
   -2.0960    2.1150   -1.0930 H   0  0  0  0  0  0  0  0  0  0  0  0
   -3.5470   -1.6190    0.4520 H   0  0  0  0  0  0  0  0  0  0  0  0
    3.7450   -2.0570   -1.8410 H   0  0  0  0  0  0  0  0  0  0  0  0
   -5.3420   -1.6260   -1.2590 H   0  0  0  0  0  0  0  0  0  0  0  0
   -3.8950    2.1000   -2.8060 H   0  0  0  0  0  0  0  0  0  0  0  0
  1  2  1  0  0  0  0
  1  9  1  0  0  0  0
  1 11  2  0  0  0  0
  1 12  2  0  0  0  0
  2  4  1  0  0  0  0
  2  7  2  0  0  0  0
  3  4  2  0  0  0  0
  3  6  1  0  0  0  0
  4 13  1  0  0  0  0
  5  6  2  0  0  0  0
  5  7  1  0  0  0  0
  5  8  1  0  0  0  0
  6 16  1  0  0  0  0
  7 21  1  0  0  0  0
  8 10  3  0  0  0  0
  9 14  1  0  0  0  0
  9 15  2  0  0  0  0
 13 22  1  0  0  0  0
 13 23  1  0  0  0  0
 14 19  2  0  0  0  0
 14 24  1  0  0  0  0
 15 18  1  0  0  0  0
 15 25  1  0  0  0  0
 16 26  1  0  0  0  0
 17 18  2  0  0  0  0
 17 19  1  0  0  0  0
 17 20  1  0  0  0  0
 18 27  1  0  0  0  0
 19 28  1  0  0  0  0
M  END
>  <$CLUSTER>
36

>  <INDEX>
25364

$$$$
Bionet 2M-901
  MOE2020           3D

 40 41  0  0  1  0  0  0  0  0999 V2000
   -0.2330    0.3110   -0.1570 C   0  0  0  0  0  0  0  0  0  0  0  0
    2.9620   -4.9910    2.5900 C   0  0  0  0  0  0  0  0  0  0  0  0
    0.3210    0.0310   -1.2980 N   0  0  0  0  0  0  0  0  0  0  0  0
    2.0120   -2.2700    0.8810 C   0  0  0  0  0  0  0  0  0  0  0  0
    0.7970   -1.6550    0.2030 C   0  0  3  0  0  0  0  0  0  0  0  0
    4.3140   -9.0550    2.3970 C   0  0  0  0  0  0  0  0  0  0  0  0
    4.0460   -5.4280    3.3190 N   0  0  0  0  0  0  0  0  0  0  0  0
    3.8050   -7.6590    2.4360 C   0  0  0  0  0  0  0  0  0  0  0  0
    1.1860   -1.0700   -1.0540 O   0  0  0  0  0  0  0  0  0  0  0  0
    2.6480   -3.6200    2.7500 N   0  0  0  0  0  0  0  0  0  0  0  0
    1.6750   -2.9910    1.9960 N   0  0  0  0  0  0  0  0  0  0  0  0
    0.1870   -0.5210    0.9940 C   0  0  0  0  0  0  0  0  0  0  0  0
    2.2680   -5.9130    1.7690 C   0  0  0  0  0  0  0  0  0  0  0  0
   -1.2060    1.4160    0.0270 C   0  0  0  0  0  0  0  0  0  0  0  0
    2.7040   -7.2460    1.7010 C   0  0  0  0  0  0  0  0  0  0  0  0
    4.4370   -6.7220    3.2280 C   0  0  0  0  0  0  0  0  0  0  0  0
    3.1520   -2.1320    0.4640 O   0  0  0  0  0  0  0  0  0  0  0  0
   -2.0460    1.7290   -0.8050 O   0  0  0  0  0  0  0  0  0  0  0  0
    4.2970   -9.6120    3.6390 F   0  0  0  0  0  0  0  0  0  0  0  0
    5.6070   -9.0860    1.9720 F   0  0  0  0  0  0  0  0  0  0  0  0
    3.6220   -9.9020    1.5850 F   0  0  0  0  0  0  0  0  0  0  0  0
    0.8620   -5.5570    0.8260 Cl  0  0  0  0  0  0  0  0  0  0  0  0
   -1.0190    2.0280    1.2080 O   0  0  0  0  0  0  0  0  0  0  0  0
    3.3880   -2.8150    3.7130 C   0  0  0  0  0  0  0  0  0  0  0  0
   -1.8910    3.1230    1.5210 C   0  0  0  0  0  0  0  0  0  0  0  0
   -1.5240    3.6690    2.8860 C   0  0  0  0  0  0  0  0  0  0  0  0
    0.0780   -2.4680    0.0990 H   0  0  0  0  0  0  0  0  0  0  0  0
    0.7060   -3.0640    2.2700 H   0  0  0  0  0  0  0  0  0  0  0  0
   -0.6580   -0.8460    1.6020 H   0  0  0  0  0  0  0  0  0  0  0  0
    0.9170   -0.0160    1.6270 H   0  0  0  0  0  0  0  0  0  0  0  0
    2.1800   -7.9520    1.0740 H   0  0  0  0  0  0  0  0  0  0  0  0
    5.2910   -7.0380    3.8080 H   0  0  0  0  0  0  0  0  0  0  0  0
    4.1150   -3.4420    4.2290 H   0  0  0  0  0  0  0  0  0  0  0  0
    2.6950   -2.3900    4.4390 H   0  0  0  0  0  0  0  0  0  0  0  0
    3.9070   -2.0110    3.1920 H   0  0  0  0  0  0  0  0  0  0  0  0
   -2.9240    2.7760    1.5320 H   0  0  0  0  0  0  0  0  0  0  0  0
   -1.7780    3.9060    0.7710 H   0  0  0  0  0  0  0  0  0  0  0  0
   -1.6380    2.8840    3.6340 H   0  0  0  0  0  0  0  0  0  0  0  0
   -2.1810    4.5030    3.1320 H   0  0  0  0  0  0  0  0  0  0  0  0
   -0.4900    4.0120    2.8740 H   0  0  0  0  0  0  0  0  0  0  0  0
  1  3  2  0  0  0  0
  1 12  1  0  0  0  0
  1 14  1  0  0  0  0
  2  7  1  0  0  0  0
  2 10  1  0  0  0  0
  2 13  2  0  0  0  0
  3  9  1  0  0  0  0
  4  5  1  0  0  0  0
  4 11  1  0  0  0  0
  4 17  2  0  0  0  0
  5  9  1  0  0  0  0
  5 12  1  0  0  0  0
  5 27  1  0  0  0  0
  6  8  1  0  0  0  0
  6 19  1  0  0  0  0
  6 20  1  0  0  0  0
  6 21  1  0  0  0  0
  7 16  2  0  0  0  0
  8 15  2  0  0  0  0
  8 16  1  0  0  0  0
 10 11  1  0  0  0  0
 10 24  1  0  0  0  0
 11 28  1  0  0  0  0
 12 29  1  0  0  0  0
 12 30  1  0  0  0  0
 13 15  1  0  0  0  0
 13 22  1  0  0  0  0
 14 18  2  0  0  0  0
 14 23  1  0  0  0  0
 15 31  1  0  0  0  0
 16 32  1  0  0  0  0
 23 25  1  0  0  0  0
 24 33  1  0  0  0  0
 24 34  1  0  0  0  0
 24 35  1  0  0  0  0
 25 26  1  0  0  0  0
 25 36  1  0  0  0  0
 25 37  1  0  0  0  0
 26 38  1  0  0  0  0
 26 39  1  0  0  0  0
 26 40  1  0  0  0  0
M  END
>  <$CLUSTER>
37

>  <INDEX>
25594

$$$$
Chemdiv 3284-0088
  MOE2020           3D

 41 43  0  0  1  0  0  0  0  0999 V2000
    0.2600    1.0340    0.8680 C   0  0  0  0  0  0  0  0  0  0  0  0
    0.5850    1.2080   -1.3340 N   0  0  0  0  0  0  0  0  0  0  0  0
    0.4730    3.9620    4.6650 C   0  0  0  0  0  0  0  0  0  0  0  0
    0.6560    1.8840   -0.1450 C   0  0  0  0  0  0  0  0  0  0  0  0
   -0.0650   -0.2190    0.2500 C   0  0  0  0  0  0  0  0  0  0  0  0
    1.4370    3.2340    6.8540 N   0  0  0  0  0  0  0  0  0  0  0  0
    0.4980    2.5000    2.7650 N   0  0  0  0  0  0  0  0  0  0  0  0
    0.1480   -0.0770   -1.1230 C   0  0  0  0  0  0  0  0  0  0  0  0
    0.3070    3.9260    6.1790 C   0  0  3  0  0  0  0  0  0  0  0  0
    0.3670    2.6150    4.1110 N   0  0  0  0  0  0  0  0  0  0  0  0
    0.6650    4.9810    4.0560 O   0  0  0  0  0  0  0  0  0  0  0  0
    0.1870    1.3450    2.2790 C   0  0  0  0  0  0  0  0  0  0  0  0
    1.5750    1.8780    6.9850 C   0  0  0  0  0  0  0  0  0  0  0  0
    1.9870   -0.8910    7.3810 C   0  0  0  0  0  0  0  0  0  0  0  0
    2.2440   -2.5550    7.6250 Cl  0  0  0  0  0  0  0  0  0  0  0  0
    0.6390    0.9330    6.5400 C   0  0  0  0  0  0  0  0  0  0  0  0
    2.7240    1.3940    7.6350 C   0  0  0  0  0  0  0  0  0  0  0  0
    0.8420   -0.4370    6.7350 C   0  0  0  0  0  0  0  0  0  0  0  0
    2.9310    0.0260    7.8310 C   0  0  0  0  0  0  0  0  0  0  0  0
   -0.5230   -1.4650    0.7300 C   0  0  0  0  0  0  0  0  0  0  0  0
    0.1670    5.3260    6.7820 C   0  0  0  0  0  0  0  0  0  0  0  0
   -0.0730   -1.1140   -2.0380 C   0  0  0  0  0  0  0  0  0  0  0  0
   -0.7480   -2.5120   -0.1710 C   0  0  0  0  0  0  0  0  0  0  0  0
   -0.5250   -2.3370   -1.5350 C   0  0  0  0  0  0  0  0  0  0  0  0
    0.8200    1.5980   -2.2360 H   0  0  0  0  0  0  0  0  0  0  0  0
    0.9690    2.9100   -0.0210 H   0  0  0  0  0  0  0  0  0  0  0  0
    2.1640    3.8130    7.2490 H   0  0  0  0  0  0  0  0  0  0  0  0
   -0.6120    3.3670    6.3520 H   0  0  0  0  0  0  0  0  0  0  0  0
    0.2050    1.8100    4.6990 H   0  0  0  0  0  0  0  0  0  0  0  0
   -0.1440    0.5740    2.9590 H   0  0  0  0  0  0  0  0  0  0  0  0
   -0.2560    1.2700    6.0370 H   0  0  0  0  0  0  0  0  0  0  0  0
    3.4640    2.0960    7.9910 H   0  0  0  0  0  0  0  0  0  0  0  0
    0.1070   -1.1450    6.3830 H   0  0  0  0  0  0  0  0  0  0  0  0
    3.8240   -0.3190    8.3320 H   0  0  0  0  0  0  0  0  0  0  0  0
   -0.6990   -1.6090    1.7860 H   0  0  0  0  0  0  0  0  0  0  0  0
    1.0850    5.8890    6.6110 H   0  0  0  0  0  0  0  0  0  0  0  0
   -0.0150    5.2440    7.8540 H   0  0  0  0  0  0  0  0  0  0  0  0
   -0.6690    5.8430    6.3100 H   0  0  0  0  0  0  0  0  0  0  0  0
    0.1000   -0.9740   -3.0950 H   0  0  0  0  0  0  0  0  0  0  0  0
   -1.0980   -3.4660    0.1950 H   0  0  0  0  0  0  0  0  0  0  0  0
   -0.7040   -3.1580   -2.2130 H   0  0  0  0  0  0  0  0  0  0  0  0
  1  4  2  0  0  0  0
  1  5  1  0  0  0  0
  1 12  1  0  0  0  0
  2  4  1  0  0  0  0
  2  8  1  0  0  0  0
  2 25  1  0  0  0  0
  3  9  1  0  0  0  0
  3 10  1  0  0  0  0
  3 11  2  0  0  0  0
  4 26  1  0  0  0  0
  5  8  2  0  0  0  0
  5 20  1  0  0  0  0
  6  9  1  0  0  0  0
  6 13  1  0  0  0  0
  6 27  1  0  0  0  0
  7 10  1  0  0  0  0
  7 12  2  0  0  0  0
  8 22  1  0  0  0  0
  9 21  1  0  0  0  0
  9 28  1  0  0  0  0
 10 29  1  0  0  0  0
 12 30  1  0  0  0  0
 13 16  2  0  0  0  0
 13 17  1  0  0  0  0
 14 15  1  0  0  0  0
 14 18  2  0  0  0  0
 14 19  1  0  0  0  0
 16 18  1  0  0  0  0
 16 31  1  0  0  0  0
 17 19  2  0  0  0  0
 17 32  1  0  0  0  0
 18 33  1  0  0  0  0
 19 34  1  0  0  0  0
 20 23  2  0  0  0  0
 20 35  1  0  0  0  0
 21 36  1  0  0  0  0
 21 37  1  0  0  0  0
 21 38  1  0  0  0  0
 22 24  2  0  0  0  0
 22 39  1  0  0  0  0
 23 24  1  0  0  0  0
 23 40  1  0  0  0  0
 24 41  1  0  0  0  0
M  END
>  <$CLUSTER>
38

>  <INDEX>
27634

$$$$
Chem T&I NSB 0068299
  MOE2020           3D

 44 45  0  0  0  0  0  0  0  0999 V2000
   -7.7580   -1.0950    4.5980 C   0  0  0  0  0  0  0  0  0  0  0  0
   -7.5390   -0.6730    3.2860 C   0  0  0  0  0  0  0  0  0  0  0  0
   -6.6790   -1.4560    5.4070 C   0  0  0  0  0  0  0  0  0  0  0  0
   -1.7390    0.1050    0.3560 C   0  0  0  0  0  0  0  0  0  0  0  0
   -0.2840    0.0660    0.0940 C   0  0  0  0  0  0  0  0  0  0  0  0
    0.2720    1.0640   -0.7170 C   0  0  0  0  0  0  0  0  0  0  0  0
   -3.5140   -0.5420    1.9100 N   0  0  0  0  0  0  0  0  0  0  0  0
    1.6400    1.0580   -0.9970 C   0  0  0  0  0  0  0  0  0  0  0  0
   -5.3780   -1.3950    4.9050 C   0  0  0  0  0  0  0  0  0  0  0  0
   -6.2380   -0.6100    2.7800 C   0  0  0  0  0  0  0  0  0  0  0  0
   -2.1780   -0.4940    1.5160 N   0  0  0  0  0  0  0  0  0  0  0  0
   -5.1680   -0.9660    3.5770 C   0  0  0  0  0  0  0  0  0  0  0  0
    2.4550    0.0560   -0.4760 C   0  0  0  0  0  0  0  0  0  0  0  0
   -2.4930    0.6690   -0.4330 O   0  0  0  0  0  0  0  0  0  0  0  0
    0.5360   -0.9440    0.6060 C   0  0  0  0  0  0  0  0  0  0  0  0
    1.9030   -0.9450    0.3220 C   0  0  0  0  0  0  0  0  0  0  0  0
   -3.7550   -0.9150    3.0790 C   0  0  0  0  0  0  0  0  0  0  0  0
   -9.0270   -1.1550    5.0880 O   0  0  0  0  0  0  0  0  0  0  0  0
   -8.6790   -0.3390    2.5730 O   0  0  0  0  0  0  0  0  0  0  0  0
   -7.0050   -1.8590    6.6860 O   0  0  0  0  0  0  0  0  0  0  0  0
    2.2310    2.1280   -1.8570 C   0  0  0  0  0  0  0  0  0  0  0  0
    3.9190    0.0560   -0.7730 C   0  0  0  0  0  0  0  0  0  0  0  0
   -8.5020    0.0970    1.2310 C   0  0  0  0  0  0  0  0  0  0  0  0
   -5.9340   -2.2350    7.5420 C   0  0  0  0  0  0  0  0  0  0  0  0
   -0.3590    1.8390   -1.1260 H   0  0  0  0  0  0  0  0  0  0  0  0
   -4.5400   -1.6730    5.5270 H   0  0  0  0  0  0  0  0  0  0  0  0
   -6.0690   -0.2830    1.7650 H   0  0  0  0  0  0  0  0  0  0  0  0
   -1.4900   -0.9240    2.1170 H   0  0  0  0  0  0  0  0  0  0  0  0
    0.1120   -1.7240    1.2210 H   0  0  0  0  0  0  0  0  0  0  0  0
    2.5350   -1.7240    0.7220 H   0  0  0  0  0  0  0  0  0  0  0  0
   -2.9430   -1.2010    3.7310 H   0  0  0  0  0  0  0  0  0  0  0  0
   -9.0970   -1.4550    5.9970 H   0  0  0  0  0  0  0  0  0  0  0  0
    1.4470    2.8180   -2.1690 H   0  0  0  0  0  0  0  0  0  0  0  0
    2.6890    1.6760   -2.7370 H   0  0  0  0  0  0  0  0  0  0  0  0
    2.9890    2.6710   -1.2920 H   0  0  0  0  0  0  0  0  0  0  0  0
    4.1610    0.9090   -1.4070 H   0  0  0  0  0  0  0  0  0  0  0  0
    4.1850   -0.8670   -1.2890 H   0  0  0  0  0  0  0  0  0  0  0  0
    4.4790    0.1260    0.1600 H   0  0  0  0  0  0  0  0  0  0  0  0
   -9.4730    0.3250    0.7920 H   0  0  0  0  0  0  0  0  0  0  0  0
   -8.0180   -0.6910    0.6540 H   0  0  0  0  0  0  0  0  0  0  0  0
   -7.8790    0.9910    1.2190 H   0  0  0  0  0  0  0  0  0  0  0  0
   -6.3310   -2.5290    8.5140 H   0  0  0  0  0  0  0  0  0  0  0  0
   -5.2550   -1.3910    7.6670 H   0  0  0  0  0  0  0  0  0  0  0  0
   -5.3940   -3.0730    7.1020 H   0  0  0  0  0  0  0  0  0  0  0  0
  1  2  1  0  0  0  0
  1  3  2  0  0  0  0
  1 18  1  0  0  0  0
  2 10  2  0  0  0  0
  2 19  1  0  0  0  0
  3  9  1  0  0  0  0
  3 20  1  0  0  0  0
  4  5  1  0  0  0  0
  4 11  1  0  0  0  0
  4 14  2  0  0  0  0
  5  6  1  0  0  0  0
  5 15  2  0  0  0  0
  6  8  2  0  0  0  0
  6 25  1  0  0  0  0
  7 11  1  0  0  0  0
  7 17  2  0  0  0  0
  8 13  1  0  0  0  0
  8 21  1  0  0  0  0
  9 12  2  0  0  0  0
  9 26  1  0  0  0  0
 10 12  1  0  0  0  0
 10 27  1  0  0  0  0
 11 28  1  0  0  0  0
 12 17  1  0  0  0  0
 13 16  2  0  0  0  0
 13 22  1  0  0  0  0
 15 16  1  0  0  0  0
 15 29  1  0  0  0  0
 16 30  1  0  0  0  0
 17 31  1  0  0  0  0
 18 32  1  0  0  0  0
 19 23  1  0  0  0  0
 20 24  1  0  0  0  0
 21 33  1  0  0  0  0
 21 34  1  0  0  0  0
 21 35  1  0  0  0  0
 22 36  1  0  0  0  0
 22 37  1  0  0  0  0
 22 38  1  0  0  0  0
 23 39  1  0  0  0  0
 23 40  1  0  0  0  0
 23 41  1  0  0  0  0
 24 42  1  0  0  0  0
 24 43  1  0  0  0  0
 24 44  1  0  0  0  0
M  END
>  <$CLUSTER>
39

>  <INDEX>
574203

$$$$
Biofocus 330_7150_8043_6008
  MOE2020           3D

 37 39  0  0  1  0  0  0  0  0999 V2000
    1.0870    0.8270    0.0810 C   0  0  3  0  0  0  0  0  0  0  0  0
    1.8220   -0.5210   -0.1280 C   0  0  0  0  0  0  0  0  0  0  0  0
    0.8450   -1.5150   -0.2360 N   0  0  0  0  0  0  0  0  0  0  0  0
   -0.3600    0.3970    0.0640 C   0  0  0  0  0  0  0  0  0  0  0  0
   -0.4340   -0.9820   -0.1240 C   0  0  0  0  0  0  0  0  0  0  0  0
    1.4860    1.4260    1.4290 C   0  0  0  0  0  0  0  0  0  0  0  0
    3.0330   -0.6750   -0.1850 O   0  0  0  0  0  0  0  0  0  0  0  0
   -1.5170    1.1450    0.2020 C   0  0  0  0  0  0  0  0  0  0  0  0
   -1.6330   -1.6640   -0.1830 C   0  0  0  0  0  0  0  0  0  0  0  0
    2.9230    1.8180    1.6350 C   0  0  0  0  0  0  0  0  0  0  0  0
   -2.7450    0.4780    0.1460 C   0  0  0  0  0  0  0  0  0  0  0  0
    5.6240    2.4690    1.7990 C   0  0  0  0  0  0  0  0  0  0  0  0
    1.4120    1.7730   -1.0740 C   0  0  0  0  0  0  0  0  0  0  0  0
   -2.8020   -0.9150   -0.0450 C   0  0  0  0  0  0  0  0  0  0  0  0
    7.2750    2.8650    1.9350 Cl  0  0  0  0  0  0  0  0  0  0  0  0
    3.3590    3.0730    1.2190 C   0  0  0  0  0  0  0  0  0  0  0  0
    3.8410    0.8620    2.0590 C   0  0  0  0  0  0  0  0  0  0  0  0
    4.7100    3.4070    1.3250 C   0  0  0  0  0  0  0  0  0  0  0  0
    5.1910    1.1970    2.1650 C   0  0  0  0  0  0  0  0  0  0  0  0
   -3.9910    1.0880    0.2670 O   0  0  0  0  0  0  0  0  0  0  0  0
   -3.9940    2.4970    0.4620 C   0  0  0  0  0  0  0  0  0  0  0  0
    1.0430   -2.4950   -0.3770 H   0  0  0  0  0  0  0  0  0  0  0  0
    1.2380    0.6910    2.1950 H   0  0  0  0  0  0  0  0  0  0  0  0
    0.8820    2.3220    1.5760 H   0  0  0  0  0  0  0  0  0  0  0  0
   -1.4720    2.2140    0.3490 H   0  0  0  0  0  0  0  0  0  0  0  0
   -1.6650   -2.7330   -0.3300 H   0  0  0  0  0  0  0  0  0  0  0  0
    1.1140    1.3120   -2.0160 H   0  0  0  0  0  0  0  0  0  0  0  0
    2.4840    1.9720   -1.0900 H   0  0  0  0  0  0  0  0  0  0  0  0
    0.8700    2.7090   -0.9400 H   0  0  0  0  0  0  0  0  0  0  0  0
   -3.7610   -1.4100   -0.0850 H   0  0  0  0  0  0  0  0  0  0  0  0
    2.6550    3.7850    0.8160 H   0  0  0  0  0  0  0  0  0  0  0  0
    3.5090   -0.1360    2.3050 H   0  0  0  0  0  0  0  0  0  0  0  0
    5.0470    4.3930    1.0400 H   0  0  0  0  0  0  0  0  0  0  0  0
    5.9010    0.4700    2.5310 H   0  0  0  0  0  0  0  0  0  0  0  0
   -5.0220    2.8510    0.5410 H   0  0  0  0  0  0  0  0  0  0  0  0
   -3.5070    2.9820   -0.3840 H   0  0  0  0  0  0  0  0  0  0  0  0
   -3.4550    2.7380    1.3780 H   0  0  0  0  0  0  0  0  0  0  0  0
  1  2  1  0  0  0  0
  1  4  1  0  0  0  0
  1  6  1  0  0  0  0
  1 13  1  0  0  0  0
  2  3  1  0  0  0  0
  2  7  2  0  0  0  0
  3  5  1  0  0  0  0
  3 22  1  0  0  0  0
  4  5  2  0  0  0  0
  4  8  1  0  0  0  0
  5  9  1  0  0  0  0
  6 10  1  0  0  0  0
  6 23  1  0  0  0  0
  6 24  1  0  0  0  0
  8 11  2  0  0  0  0
  8 25  1  0  0  0  0
  9 14  2  0  0  0  0
  9 26  1  0  0  0  0
 10 16  2  0  0  0  0
 10 17  1  0  0  0  0
 11 14  1  0  0  0  0
 11 20  1  0  0  0  0
 12 15  1  0  0  0  0
 12 18  2  0  0  0  0
 12 19  1  0  0  0  0
 13 27  1  0  0  0  0
 13 28  1  0  0  0  0
 13 29  1  0  0  0  0
 14 30  1  0  0  0  0
 16 18  1  0  0  0  0
 16 31  1  0  0  0  0
 17 19  2  0  0  0  0
 17 32  1  0  0  0  0
 18 33  1  0  0  0  0
 19 34  1  0  0  0  0
 20 21  1  0  0  0  0
 21 35  1  0  0  0  0
 21 36  1  0  0  0  0
 21 37  1  0  0  0  0
M  END
>  <$CLUSTER>
40

>  <INDEX>
28209

$$$$
Chemdiv 3365-7624
  MOE2020           3D

 48 49  0  0  0  0  0  0  0  0999 V2000
    1.5670  -12.2680   -5.4400 C   0  0  0  0  0  0  0  0  0  0  0  0
    0.6630   -6.1660   -2.8330 C   0  0  0  0  0  0  0  0  0  0  0  0
   -1.0900    0.2820    0.0630 C   0  0  0  0  0  0  0  0  0  0  0  0
    1.5360  -10.9060   -4.8910 C   0  0  0  0  0  0  0  0  0  0  0  0
    1.6400   -6.9840   -3.3460 N   0  0  0  0  0  0  0  0  0  0  0  0
   -0.0390   -0.5050   -0.4470 C   0  0  0  0  0  0  0  0  0  0  0  0
   -0.8180    1.5780    0.5280 C   0  0  0  0  0  0  0  0  0  0  0  0
    2.5770  -12.8190   -5.8530 O   0  0  0  0  0  0  0  0  0  0  0  0
   -0.5170   -6.4880   -2.7370 O   0  0  0  0  0  0  0  0  0  0  0  0
    2.7290  -10.1930   -4.8350 C   0  0  0  0  0  0  0  0  0  0  0  0
    0.3580  -10.3190   -4.4320 C   0  0  0  0  0  0  0  0  0  0  0  0
    1.2600    0.0170   -0.4840 C   0  0  0  0  0  0  0  0  0  0  0  0
    1.5650   -8.2950   -3.8550 C   0  0  0  0  0  0  0  0  0  0  0  0
    0.4780    2.0880    0.4870 C   0  0  0  0  0  0  0  0  0  0  0  0
    0.3450  -12.8430   -5.4360 O   0  0  0  0  0  0  0  0  0  0  0  0
    2.7440   -8.8950   -4.3200 C   0  0  0  0  0  0  0  0  0  0  0  0
    0.3700   -9.0180   -3.9150 C   0  0  0  0  0  0  0  0  0  0  0  0
    1.5140    1.3090   -0.0180 C   0  0  0  0  0  0  0  0  0  0  0  0
    0.7770    3.6640    1.0580 Cl  0  0  0  0  0  0  0  0  0  0  0  0
   -0.3880   -1.7600   -0.8810 O   0  0  0  0  0  0  0  0  0  0  0  0
    1.2000   -4.8130   -2.3960 C   0  0  0  0  0  0  0  0  0  0  0  0
   -2.4970   -0.2450    0.1190 C   0  0  0  0  0  0  0  0  0  0  0  0
    0.2290  -14.1700   -5.9410 C   0  0  0  0  0  0  0  0  0  0  0  0
    0.6490   -2.5820   -1.4030 C   0  0  0  0  0  0  0  0  0  0  0  0
    0.1330   -3.9070   -1.8330 C   0  0  0  0  0  0  0  0  0  0  0  0
   -1.2180  -14.6100   -5.8440 C   0  0  0  0  0  0  0  0  0  0  0  0
    2.5650   -6.5780   -3.3610 H   0  0  0  0  0  0  0  0  0  0  0  0
   -1.6200    2.1850    0.9210 H   0  0  0  0  0  0  0  0  0  0  0  0
    3.6440  -10.6430   -5.1900 H   0  0  0  0  0  0  0  0  0  0  0  0
   -0.5690  -10.8710   -4.4750 H   0  0  0  0  0  0  0  0  0  0  0  0
    2.0690   -0.5820   -0.8750 H   0  0  0  0  0  0  0  0  0  0  0  0
    3.6740   -8.3470   -4.2790 H   0  0  0  0  0  0  0  0  0  0  0  0
   -0.5470   -8.5710   -3.5610 H   0  0  0  0  0  0  0  0  0  0  0  0
    2.5180    1.7050   -0.0500 H   0  0  0  0  0  0  0  0  0  0  0  0
    1.6510   -4.3230   -3.2590 H   0  0  0  0  0  0  0  0  0  0  0  0
    1.9600   -4.9720   -1.6310 H   0  0  0  0  0  0  0  0  0  0  0  0
   -2.5210   -1.2590   -0.2800 H   0  0  0  0  0  0  0  0  0  0  0  0
   -3.1490    0.3950   -0.4750 H   0  0  0  0  0  0  0  0  0  0  0  0
   -2.8410   -0.2540    1.1530 H   0  0  0  0  0  0  0  0  0  0  0  0
    0.8550  -14.8410   -5.3530 H   0  0  0  0  0  0  0  0  0  0  0  0
    0.5490  -14.1940   -6.9830 H   0  0  0  0  0  0  0  0  0  0  0  0
    1.4050   -2.7300   -0.6320 H   0  0  0  0  0  0  0  0  0  0  0  0
    1.0980   -2.0820   -2.2610 H   0  0  0  0  0  0  0  0  0  0  0  0
   -0.3180   -4.3980   -0.9710 H   0  0  0  0  0  0  0  0  0  0  0  0
   -0.6260   -3.7500   -2.5990 H   0  0  0  0  0  0  0  0  0  0  0  0
   -1.5360  -14.5850   -4.8020 H   0  0  0  0  0  0  0  0  0  0  0  0
   -1.3160  -15.6250   -6.2300 H   0  0  0  0  0  0  0  0  0  0  0  0
   -1.8430  -13.9360   -6.4310 H   0  0  0  0  0  0  0  0  0  0  0  0
  1  4  1  0  0  0  0
  1  8  2  0  0  0  0
  1 15  1  0  0  0  0
  2  5  1  0  0  0  0
  2  9  2  0  0  0  0
  2 21  1  0  0  0  0
  3  6  2  0  0  0  0
  3  7  1  0  0  0  0
  3 22  1  0  0  0  0
  4 10  2  0  0  0  0
  4 11  1  0  0  0  0
  5 13  1  0  0  0  0
  5 27  1  0  0  0  0
  6 12  1  0  0  0  0
  6 20  1  0  0  0  0
  7 14  2  0  0  0  0
  7 28  1  0  0  0  0
 10 16  1  0  0  0  0
 10 29  1  0  0  0  0
 11 17  2  0  0  0  0
 11 30  1  0  0  0  0
 12 18  2  0  0  0  0
 12 31  1  0  0  0  0
 13 16  2  0  0  0  0
 13 17  1  0  0  0  0
 14 18  1  0  0  0  0
 14 19  1  0  0  0  0
 15 23  1  0  0  0  0
 16 32  1  0  0  0  0
 17 33  1  0  0  0  0
 18 34  1  0  0  0  0
 20 24  1  0  0  0  0
 21 25  1  0  0  0  0
 21 35  1  0  0  0  0
 21 36  1  0  0  0  0
 22 37  1  0  0  0  0
 22 38  1  0  0  0  0
 22 39  1  0  0  0  0
 23 26  1  0  0  0  0
 23 40  1  0  0  0  0
 23 41  1  0  0  0  0
 24 25  1  0  0  0  0
 24 42  1  0  0  0  0
 24 43  1  0  0  0  0
 25 44  1  0  0  0  0
 25 45  1  0  0  0  0
 26 46  1  0  0  0  0
 26 47  1  0  0  0  0
 26 48  1  0  0  0  0
M  END
>  <$CLUSTER>
41

>  <INDEX>
28959

$$$$
BiotechCA 34633P
  MOE2020           3D

 51 55  0  0  0  0  0  0  0  0999 V2000
    0.9210    2.1950   -3.5290 N   0  3  0  0  0  0  0  0  0  0  0  0
    0.7370    1.7190   -2.2860 C   0  0  0  0  0  0  0  0  0  0  0  0
    1.1020    2.5000   -1.2010 C   0  0  0  0  0  0  0  0  0  0  0  0
    1.4480    3.4120   -3.7460 C   0  0  0  0  0  0  0  0  0  0  0  0
    1.6490    3.7590   -1.3650 N   0  0  0  0  0  0  0  0  0  0  0  0
    0.1890    0.4530   -2.0790 C   0  0  0  0  0  0  0  0  0  0  0  0
   -0.0040   -0.0530   -0.7820 C   0  0  0  0  0  0  0  0  0  0  0  0
    0.3670    0.7500    0.3300 C   0  0  0  0  0  0  0  0  0  0  0  0
   -1.0270   -2.2490   -1.5090 C   0  0  0  0  0  0  0  0  0  0  0  0
    0.5170    0.8630    2.8530 C   0  0  0  0  0  0  0  0  0  0  0  0
   -0.5370   -1.3540   -0.5640 N   0  0  0  0  0  0  0  0  0  0  0  0
    0.1520    0.2660    1.6510 N   0  0  0  0  0  0  0  0  0  0  0  0
    0.9190    2.0210    0.0960 C   0  0  0  0  0  0  0  0  0  0  0  0
    1.8080    4.1830   -2.6450 C   0  0  0  0  0  0  0  0  0  0  0  0
    0.6020    1.5180   -4.5820 O   0  5  0  0  0  0  0  0  0  0  0  0
    1.1320    1.9090    3.0270 O   0  0  0  0  0  0  0  0  0  0  0  0
   -1.1400   -2.0920   -2.7200 O   0  0  0  0  0  0  0  0  0  0  0  0
   -1.4660   -3.5380   -0.8590 C   0  0  0  0  0  0  0  0  0  0  0  0
    0.0680    0.0320    4.0290 C   0  0  0  0  0  0  0  0  0  0  0  0
    1.6280    3.8870   -5.0660 C   0  0  0  0  0  0  0  0  0  0  0  0
    2.3610    5.4580   -2.8710 C   0  0  0  0  0  0  0  0  0  0  0  0
   -2.4440   -4.2980   -1.5700 C   0  0  0  0  0  0  0  0  0  0  0  0
    0.8020    0.2120    5.2410 C   0  0  0  0  0  0  0  0  0  0  0  0
   -1.0210   -0.8100    4.0240 C   0  0  0  0  0  0  0  0  0  0  0  0
   -0.9410   -4.0450    0.3080 C   0  0  0  0  0  0  0  0  0  0  0  0
    2.1770    5.1530   -5.2660 C   0  0  0  0  0  0  0  0  0  0  0  0
    2.5420    5.9340   -4.1720 C   0  0  0  0  0  0  0  0  0  0  0  0
   -1.3840   -1.5170    5.1740 C   0  0  0  0  0  0  0  0  0  0  0  0
   -2.8840   -5.5180   -1.0530 C   0  0  0  0  0  0  0  0  0  0  0  0
   -1.3850   -5.2670    0.8200 C   0  0  0  0  0  0  0  0  0  0  0  0
    0.4350   -0.4970    6.3860 C   0  0  0  0  0  0  0  0  0  0  0  0
   -2.3570   -6.0010    0.1430 C   0  0  0  0  0  0  0  0  0  0  0  0
   -0.6560   -1.3630    6.3520 C   0  0  0  0  0  0  0  0  0  0  0  0
   -0.0920   -0.1490   -2.9300 H   0  0  0  0  0  0  0  0  0  0  0  0
   -0.5630   -1.6660    0.3960 H   0  0  0  0  0  0  0  0  0  0  0  0
   -0.3250   -0.6210    1.7250 H   0  0  0  0  0  0  0  0  0  0  0  0
    1.2060    2.6370    0.9350 H   0  0  0  0  0  0  0  0  0  0  0  0
    1.3430    3.2760   -5.9100 H   0  0  0  0  0  0  0  0  0  0  0  0
    2.6480    6.0730   -2.0310 H   0  0  0  0  0  0  0  0  0  0  0  0
   -2.8420   -3.9300   -2.5040 H   0  0  0  0  0  0  0  0  0  0  0  0
    1.6380    0.8950    5.2710 H   0  0  0  0  0  0  0  0  0  0  0  0
   -1.6020   -0.9260    3.1210 H   0  0  0  0  0  0  0  0  0  0  0  0
   -0.1770   -3.4920    0.8340 H   0  0  0  0  0  0  0  0  0  0  0  0
    2.3190    5.5280   -6.2690 H   0  0  0  0  0  0  0  0  0  0  0  0
    2.9680    6.9140   -4.3300 H   0  0  0  0  0  0  0  0  0  0  0  0
   -2.2320   -2.1850    5.1490 H   0  0  0  0  0  0  0  0  0  0  0  0
   -3.6340   -6.0880   -1.5810 H   0  0  0  0  0  0  0  0  0  0  0  0
   -0.9730   -5.6440    1.7440 H   0  0  0  0  0  0  0  0  0  0  0  0
    0.9980   -0.3740    7.3000 H   0  0  0  0  0  0  0  0  0  0  0  0
   -2.7010   -6.9430    0.5450 H   0  0  0  0  0  0  0  0  0  0  0  0
   -0.9370   -1.9140    7.2370 H   0  0  0  0  0  0  0  0  0  0  0  0
  1  2  2  0  0  0  0
  1  4  1  0  0  0  0
  1 15  1  0  0  0  0
  2  3  1  0  0  0  0
  2  6  1  0  0  0  0
  3  5  2  0  0  0  0
  3 13  1  0  0  0  0
  4 14  2  0  0  0  0
  4 20  1  0  0  0  0
  5 14  1  0  0  0  0
  6  7  2  0  0  0  0
  6 34  1  0  0  0  0
  7  8  1  0  0  0  0
  7 11  1  0  0  0  0
  8 12  1  0  0  0  0
  8 13  2  0  0  0  0
  9 11  1  0  0  0  0
  9 17  2  0  0  0  0
  9 18  1  0  0  0  0
 10 12  1  0  0  0  0
 10 16  2  0  0  0  0
 10 19  1  0  0  0  0
 11 35  1  0  0  0  0
 12 36  1  0  0  0  0
 13 37  1  0  0  0  0
 14 21  1  0  0  0  0
 18 22  2  0  0  0  0
 18 25  1  0  0  0  0
 19 23  1  0  0  0  0
 19 24  2  0  0  0  0
 20 26  2  0  0  0  0
 20 38  1  0  0  0  0
 21 27  2  0  0  0  0
 21 39  1  0  0  0  0
 22 29  1  0  0  0  0
 22 40  1  0  0  0  0
 23 31  2  0  0  0  0
 23 41  1  0  0  0  0
 24 28  1  0  0  0  0
 24 42  1  0  0  0  0
 25 30  2  0  0  0  0
 25 43  1  0  0  0  0
 26 27  1  0  0  0  0
 26 44  1  0  0  0  0
 27 45  1  0  0  0  0
 28 33  2  0  0  0  0
 28 46  1  0  0  0  0
 29 32  2  0  0  0  0
 29 47  1  0  0  0  0
 30 32  1  0  0  0  0
 30 48  1  0  0  0  0
 31 33  1  0  0  0  0
 31 49  1  0  0  0  0
 32 50  1  0  0  0  0
 33 51  1  0  0  0  0
M  CHG  1   1   1
M  CHG  1  15  -1
M  END
>  <$CLUSTER>
42

>  <INDEX>
29257

$$$$
Chemical Block A3553/0150643
  MOE2020           3D

 43 46  0  0  0  0  0  0  0  0999 V2000
   -0.1760    0.6670   -0.3410 C   0  0  0  0  0  0  0  0  0  0  0  0
   -0.5300    1.9670   -0.6370 N   0  0  0  0  0  0  0  0  0  0  0  0
    0.6830    0.1600    0.7120 C   0  0  0  0  0  0  0  0  0  0  0  0
   -0.7340   -0.1770   -1.1860 N   0  0  0  0  0  0  0  0  0  0  0  0
    0.8240   -1.1780    1.1590 C   0  0  0  0  0  0  0  0  0  0  0  0
    1.7340   -1.2080    2.1380 N   0  0  0  0  0  0  0  0  0  0  0  0
    1.5080    0.9480    1.4030 N   0  0  0  0  0  0  0  0  0  0  0  0
   -1.3340    1.9400   -1.7590 C   0  0  0  0  0  0  0  0  0  0  0  0
    2.1570    0.1030    2.2910 O   0  0  0  0  0  0  0  0  0  0  0  0
    0.1310   -2.2800    0.6680 N   0  0  0  0  0  0  0  0  0  0  0  0
   -1.4470    0.5890   -2.0720 C   0  0  0  0  0  0  0  0  0  0  0  0
   -0.1630    3.1780    0.0770 C   0  0  0  0  0  0  0  0  0  0  0  0
    0.2990   -3.5730    1.1400 C   0  0  0  0  0  0  0  0  0  0  0  0
    1.0540   -3.9420    2.0350 O   0  0  0  0  0  0  0  0  0  0  0  0
    1.1020    3.8160   -0.4690 C   0  0  0  0  0  0  0  0  0  0  0  0
    1.0290    4.8920   -1.3630 C   0  0  0  0  0  0  0  0  0  0  0  0
    2.1970    5.4720   -1.8670 C   0  0  0  0  0  0  0  0  0  0  0  0
    2.2050    6.5040   -2.7120 F   0  0  0  0  0  0  0  0  0  0  0  0
   -1.9610    2.9400   -2.5120 C   0  0  0  0  0  0  0  0  0  0  0  0
   -2.2190    0.1950   -3.1790 C   0  0  0  0  0  0  0  0  0  0  0  0
    3.5260    3.8900   -0.6140 C   0  0  0  0  0  0  0  0  0  0  0  0
   -0.5890   -4.5470    0.4110 C   0  0  0  0  0  0  0  0  0  0  0  0
    2.3600    3.3090   -0.1100 C   0  0  0  0  0  0  0  0  0  0  0  0
    3.4440    4.9730   -1.4900 C   0  0  0  0  0  0  0  0  0  0  0  0
   -0.4460   -5.9840    0.8880 C   0  0  0  0  0  0  0  0  0  0  0  0
   -2.7240    2.5320   -3.6120 C   0  0  0  0  0  0  0  0  0  0  0  0
   -2.8530    1.1830   -3.9400 C   0  0  0  0  0  0  0  0  0  0  0  0
   -0.5340   -2.1290   -0.0770 H   0  0  0  0  0  0  0  0  0  0  0  0
   -0.0040    2.9300    1.1270 H   0  0  0  0  0  0  0  0  0  0  0  0
   -0.9800    3.8940   -0.0080 H   0  0  0  0  0  0  0  0  0  0  0  0
    0.0650    5.2760   -1.6640 H   0  0  0  0  0  0  0  0  0  0  0  0
   -1.8600    3.9840   -2.2540 H   0  0  0  0  0  0  0  0  0  0  0  0
   -2.3210   -0.8490   -3.4370 H   0  0  0  0  0  0  0  0  0  0  0  0
    4.4910    3.5010   -0.3260 H   0  0  0  0  0  0  0  0  0  0  0  0
   -0.3410   -4.5110   -0.6500 H   0  0  0  0  0  0  0  0  0  0  0  0
   -1.6250   -4.2400    0.5520 H   0  0  0  0  0  0  0  0  0  0  0  0
    2.4270    2.4650    0.5600 H   0  0  0  0  0  0  0  0  0  0  0  0
    4.3460    5.4250   -1.8760 H   0  0  0  0  0  0  0  0  0  0  0  0
    0.5850   -6.3100    0.7540 H   0  0  0  0  0  0  0  0  0  0  0  0
   -1.1080   -6.6270    0.3080 H   0  0  0  0  0  0  0  0  0  0  0  0
   -0.7130   -6.0450    1.9430 H   0  0  0  0  0  0  0  0  0  0  0  0
   -3.2220    3.2750   -4.2170 H   0  0  0  0  0  0  0  0  0  0  0  0
   -3.4500    0.8970   -4.7930 H   0  0  0  0  0  0  0  0  0  0  0  0
  1  2  1  0  0  0  0
  1  3  1  0  0  0  0
  1  4  2  0  0  0  0
  2  8  1  0  0  0  0
  2 12  1  0  0  0  0
  3  5  1  0  0  0  0
  3  7  2  0  0  0  0
  4 11  1  0  0  0  0
  5  6  2  0  0  0  0
  5 10  1  0  0  0  0
  6  9  1  0  0  0  0
  7  9  1  0  0  0  0
  8 11  2  0  0  0  0
  8 19  1  0  0  0  0
 10 13  1  0  0  0  0
 10 28  1  0  0  0  0
 11 20  1  0  0  0  0
 12 15  1  0  0  0  0
 12 29  1  0  0  0  0
 12 30  1  0  0  0  0
 13 14  2  0  0  0  0
 13 22  1  0  0  0  0
 15 16  2  0  0  0  0
 15 23  1  0  0  0  0
 16 17  1  0  0  0  0
 16 31  1  0  0  0  0
 17 18  1  0  0  0  0
 17 24  2  0  0  0  0
 19 26  2  0  0  0  0
 19 32  1  0  0  0  0
 20 27  2  0  0  0  0
 20 33  1  0  0  0  0
 21 23  2  0  0  0  0
 21 24  1  0  0  0  0
 21 34  1  0  0  0  0
 22 25  1  0  0  0  0
 22 35  1  0  0  0  0
 22 36  1  0  0  0  0
 23 37  1  0  0  0  0
 24 38  1  0  0  0  0
 25 39  1  0  0  0  0
 25 40  1  0  0  0  0
 25 41  1  0  0  0  0
 26 27  1  0  0  0  0
 26 42  1  0  0  0  0
 27 43  1  0  0  0  0
M  END
>  <$CLUSTER>
43

>  <INDEX>
116256

$$$$
Chemdiv 3660-0363
  MOE2020           3D

 29 31  0  0  0  0  0  0  0  0999 V2000
    0.8190   -0.5210   -0.4770 C   0  0  0  0  0  0  0  0  0  0  0  0
    1.4540   -1.7890   -0.3700 C   0  0  0  0  0  0  0  0  0  0  0  0
    1.1830    0.1420   -1.6790 C   0  0  0  0  0  0  0  0  0  0  0  0
    1.1860   -2.5980    0.8020 N   0  3  0  0  0  0  0  0  0  0  0  0
   -0.0650   -0.0360    0.4960 N   0  0  0  0  0  0  0  0  0  0  0  0
    2.0900   -0.4410   -2.6680 C   0  0  0  0  0  0  0  0  0  0  0  0
    2.3350   -2.3670   -1.3250 C   0  0  0  0  0  0  0  0  0  0  0  0
    0.8290    1.3570   -2.1250 N   0  0  0  0  0  0  0  0  0  0  0  0
   -1.7340    1.4990    1.4400 C   0  0  0  0  0  0  0  0  0  0  0  0
    1.4580    1.5240   -3.3420 O   0  0  0  0  0  0  0  0  0  0  0  0
    2.2290    0.4290   -3.6770 N   0  0  0  0  0  0  0  0  0  0  0  0
   -1.2720    0.6870    0.3750 C   0  0  0  0  0  0  0  0  0  0  0  0
    2.6800   -1.7080   -2.5130 C   0  0  0  0  0  0  0  0  0  0  0  0
   -1.0060    1.5940    2.7560 C   0  0  0  0  0  0  0  0  0  0  0  0
    0.5580   -3.6500    0.6250 O   0  5  0  0  0  0  0  0  0  0  0  0
    1.6140   -2.1800    1.8850 O   0  0  0  0  0  0  0  0  0  0  0  0
   -0.9300    2.7450    3.2860 O   0  0  0  0  0  0  0  0  0  0  0  0
   -0.5350    0.5170    3.2370 O   0  5  0  0  0  0  0  0  0  0  0  0
   -2.9090    2.2560    1.2740 C   0  0  0  0  0  0  0  0  0  0  0  0
   -2.0180    0.6640   -0.8190 C   0  0  0  0  0  0  0  0  0  0  0  0
   -3.6280    2.2150    0.0810 C   0  0  0  0  0  0  0  0  0  0  0  0
   -3.1840    1.4170   -0.9640 C   0  0  0  0  0  0  0  0  0  0  0  0
    0.2080   -0.2380    1.4470 H   0  0  0  0  0  0  0  0  0  0  0  0
    2.7510   -3.3440   -1.1290 H   0  0  0  0  0  0  0  0  0  0  0  0
    3.3440   -2.1380   -3.2480 H   0  0  0  0  0  0  0  0  0  0  0  0
   -3.2590    2.8790    2.0840 H   0  0  0  0  0  0  0  0  0  0  0  0
   -1.6800    0.0500   -1.6410 H   0  0  0  0  0  0  0  0  0  0  0  0
   -4.5280    2.8020   -0.0300 H   0  0  0  0  0  0  0  0  0  0  0  0
   -3.7400    1.3790   -1.8890 H   0  0  0  0  0  0  0  0  0  0  0  0
  1  2  2  0  0  0  0
  1  3  1  0  0  0  0
  1  5  1  0  0  0  0
  2  4  1  0  0  0  0
  2  7  1  0  0  0  0
  3  6  1  0  0  0  0
  3  8  2  0  0  0  0
  4 15  1  0  0  0  0
  4 16  2  0  0  0  0
  5 12  1  0  0  0  0
  5 23  1  0  0  0  0
  6 11  2  0  0  0  0
  6 13  1  0  0  0  0
  7 13  2  0  0  0  0
  7 24  1  0  0  0  0
  8 10  1  0  0  0  0
  9 12  2  0  0  0  0
  9 14  1  0  0  0  0
  9 19  1  0  0  0  0
 10 11  1  0  0  0  0
 12 20  1  0  0  0  0
 13 25  1  0  0  0  0
 14 17  2  0  0  0  0
 14 18  1  0  0  0  0
 19 21  2  0  0  0  0
 19 26  1  0  0  0  0
 20 22  2  0  0  0  0
 20 27  1  0  0  0  0
 21 22  1  0  0  0  0
 21 28  1  0  0  0  0
 22 29  1  0  0  0  0
M  CHG  1   4   1
M  CHG  1  15  -1
M  CHG  1  18  -1
M  END
>  <$CLUSTER>
44

>  <INDEX>
29932

$$$$
Labotest LTBB002607
  MOE2020           3D

 25 25  0  0  0  0  0  0  0  0999 V2000
    0.6710   -1.1690    0.3910 C   0  0  0  0  0  0  0  0  0  0  0  0
    2.0250   -0.9750    0.1150 C   0  0  0  0  0  0  0  0  0  0  0  0
   -0.2710   -0.1680    0.1090 C   0  0  0  0  0  0  0  0  0  0  0  0
    2.4580    0.2230   -0.4450 C   0  0  0  0  0  0  0  0  0  0  0  0
    0.1840    1.0350   -0.4570 C   0  0  0  0  0  0  0  0  0  0  0  0
    1.5380    1.2270   -0.7320 C   0  0  0  0  0  0  0  0  0  0  0  0
   -1.7420   -0.4020    0.4170 C   0  0  0  0  0  0  0  0  0  0  0  0
    2.9340   -1.9490    0.3880 O   0  0  0  0  0  0  0  0  0  0  0  0
    3.9080    0.4340   -0.7380 C   0  0  0  0  0  0  0  0  0  0  0  0
   -2.5970   -0.3660   -0.8530 C   0  0  0  0  0  0  0  0  0  0  0  0
   -2.2660    0.5950    1.4550 C   0  0  0  0  0  0  0  0  0  0  0  0
    0.3440   -2.1010    0.8270 H   0  0  0  0  0  0  0  0  0  0  0  0
   -0.5230    1.8200   -0.6820 H   0  0  0  0  0  0  0  0  0  0  0  0
    1.8730    2.1560   -1.1680 H   0  0  0  0  0  0  0  0  0  0  0  0
   -1.8220   -1.4020    0.8440 H   0  0  0  0  0  0  0  0  0  0  0  0
    3.8420   -1.7300    0.1660 H   0  0  0  0  0  0  0  0  0  0  0  0
    4.4700   -0.4540   -0.4490 H   0  0  0  0  0  0  0  0  0  0  0  0
    4.2710    1.2940   -0.1750 H   0  0  0  0  0  0  0  0  0  0  0  0
    4.0400    0.6160   -1.8040 H   0  0  0  0  0  0  0  0  0  0  0  0
   -2.5360    0.6240   -1.3040 H   0  0  0  0  0  0  0  0  0  0  0  0
   -3.6340   -0.5870   -0.5990 H   0  0  0  0  0  0  0  0  0  0  0  0
   -2.2300   -1.1100   -1.5600 H   0  0  0  0  0  0  0  0  0  0  0  0
   -2.1980    1.6060    1.0540 H   0  0  0  0  0  0  0  0  0  0  0  0
   -1.6670    0.5230    2.3630 H   0  0  0  0  0  0  0  0  0  0  0  0
   -3.3060    0.3650    1.6870 H   0  0  0  0  0  0  0  0  0  0  0  0
  1  2  2  0  0  0  0
  1  3  1  0  0  0  0
  1 12  1  0  0  0  0
  2  4  1  0  0  0  0
  2  8  1  0  0  0  0
  3  5  2  0  0  0  0
  3  7  1  0  0  0  0
  4  6  2  0  0  0  0
  4  9  1  0  0  0  0
  5  6  1  0  0  0  0
  5 13  1  0  0  0  0
  6 14  1  0  0  0  0
  7 10  1  0  0  0  0
  7 11  1  0  0  0  0
  7 15  1  0  0  0  0
  8 16  1  0  0  0  0
  9 17  1  0  0  0  0
  9 18  1  0  0  0  0
  9 19  1  0  0  0  0
 10 20  1  0  0  0  0
 10 21  1  0  0  0  0
 10 22  1  0  0  0  0
 11 23  1  0  0  0  0
 11 24  1  0  0  0  0
 11 25  1  0  0  0  0
M  END
>  <$CLUSTER>
45

>  <INDEX>
327629

$$$$
Chemdiv 2262-3022
  MOE2020           3D

 43 45  0  0  0  0  0  0  0  0999 V2000
   -1.0310    0.4430   -0.0340 C   0  0  0  0  0  0  0  0  0  0  0  0
   -0.3840   -2.2390   -0.4050 N   0  0  0  0  0  0  0  0  0  0  0  0
   -1.4390    1.8500    0.1170 C   0  0  0  0  0  0  0  0  0  0  0  0
   -2.9450    3.3610    1.3140 N   0  0  0  0  0  0  0  0  0  0  0  0
    0.3220    0.0500    0.0340 C   0  0  0  0  0  0  0  0  0  0  0  0
    0.5890   -1.3280   -0.1630 C   0  0  0  0  0  0  0  0  0  0  0  0
   -2.4180    2.0800    1.0290 N   0  0  0  0  0  0  0  0  0  0  0  0
   -3.9280    3.4890    2.0730 C   0  0  0  0  0  0  0  0  0  0  0  0
   -2.0380   -0.4920   -0.2790 C   0  0  0  0  0  0  0  0  0  0  0  0
   -1.6660   -1.8090   -0.4550 C   0  0  0  0  0  0  0  0  0  0  0  0
   -4.4580    4.8890    2.2780 C   0  0  0  0  0  0  0  0  0  0  0  0
   -0.9250    2.7370   -0.5560 O   0  0  0  0  0  0  0  0  0  0  0  0
   -4.0190    5.9310    1.4620 C   0  0  0  0  0  0  0  0  0  0  0  0
   -5.3960    5.1850    3.3020 C   0  0  0  0  0  0  0  0  0  0  0  0
   -5.8650    6.4910    3.4730 C   0  0  0  0  0  0  0  0  0  0  0  0
   -4.4890    7.2350    1.6350 C   0  0  0  0  0  0  0  0  0  0  0  0
   -5.4130    7.5140    2.6400 C   0  0  0  0  0  0  0  0  0  0  0  0
    1.4030    0.9240    0.3020 C   0  0  0  0  0  0  0  0  0  0  0  0
    1.9080   -1.7700   -0.1020 C   0  0  0  0  0  0  0  0  0  0  0  0
   -4.6460    2.3700    2.7930 C   0  0  0  0  0  0  0  0  0  0  0  0
   -2.7210   -2.8450   -0.7190 C   0  0  0  0  0  0  0  0  0  0  0  0
   -5.9190    8.9070    2.8220 C   0  0  0  0  0  0  0  0  0  0  0  0
    2.7120    0.4510    0.3580 C   0  0  0  0  0  0  0  0  0  0  0  0
    2.9660   -0.8990    0.1540 C   0  0  0  0  0  0  0  0  0  0  0  0
   -2.7920    1.2890    1.5340 H   0  0  0  0  0  0  0  0  0  0  0  0
   -3.0750   -0.1940   -0.3290 H   0  0  0  0  0  0  0  0  0  0  0  0
   -3.3020    5.7260    0.6810 H   0  0  0  0  0  0  0  0  0  0  0  0
   -5.7490    4.3980    3.9520 H   0  0  0  0  0  0  0  0  0  0  0  0
   -6.5800    6.7080    4.2530 H   0  0  0  0  0  0  0  0  0  0  0  0
   -4.1360    8.0260    0.9900 H   0  0  0  0  0  0  0  0  0  0  0  0
    1.2100    1.9740    0.4660 H   0  0  0  0  0  0  0  0  0  0  0  0
    2.1180   -2.8180   -0.2580 H   0  0  0  0  0  0  0  0  0  0  0  0
   -5.4640    2.7840    3.3830 H   0  0  0  0  0  0  0  0  0  0  0  0
   -3.9470    1.8550    3.4520 H   0  0  0  0  0  0  0  0  0  0  0  0
   -5.0440    1.6650    2.0630 H   0  0  0  0  0  0  0  0  0  0  0  0
   -2.2510   -3.8220   -0.8310 H   0  0  0  0  0  0  0  0  0  0  0  0
   -3.2570   -2.5920   -1.6340 H   0  0  0  0  0  0  0  0  0  0  0  0
   -3.4200   -2.8720    0.1170 H   0  0  0  0  0  0  0  0  0  0  0  0
   -6.6280    8.9310    3.6500 H   0  0  0  0  0  0  0  0  0  0  0  0
   -6.4150    9.2350    1.9090 H   0  0  0  0  0  0  0  0  0  0  0  0
   -5.0830    9.5720    3.0400 H   0  0  0  0  0  0  0  0  0  0  0  0
    3.5260    1.1310    0.5590 H   0  0  0  0  0  0  0  0  0  0  0  0
    3.9790   -1.2720    0.1930 H   0  0  0  0  0  0  0  0  0  0  0  0
  1  3  1  0  0  0  0
  1  5  2  0  0  0  0
  1  9  1  0  0  0  0
  2  6  2  0  0  0  0
  2 10  1  0  0  0  0
  3  7  1  0  0  0  0
  3 12  2  0  0  0  0
  4  7  1  0  0  0  0
  4  8  2  0  0  0  0
  5  6  1  0  0  0  0
  5 18  1  0  0  0  0
  6 19  1  0  0  0  0
  7 25  1  0  0  0  0
  8 11  1  0  0  0  0
  8 20  1  0  0  0  0
  9 10  2  0  0  0  0
  9 26  1  0  0  0  0
 10 21  1  0  0  0  0
 11 13  1  0  0  0  0
 11 14  2  0  0  0  0
 13 16  2  0  0  0  0
 13 27  1  0  0  0  0
 14 15  1  0  0  0  0
 14 28  1  0  0  0  0
 15 17  2  0  0  0  0
 15 29  1  0  0  0  0
 16 17  1  0  0  0  0
 16 30  1  0  0  0  0
 17 22  1  0  0  0  0
 18 23  2  0  0  0  0
 18 31  1  0  0  0  0
 19 24  2  0  0  0  0
 19 32  1  0  0  0  0
 20 33  1  0  0  0  0
 20 34  1  0  0  0  0
 20 35  1  0  0  0  0
 21 36  1  0  0  0  0
 21 37  1  0  0  0  0
 21 38  1  0  0  0  0
 22 39  1  0  0  0  0
 22 40  1  0  0  0  0
 22 41  1  0  0  0  0
 23 24  1  0  0  0  0
 23 42  1  0  0  0  0
 24 43  1  0  0  0  0
M  END
>  <$CLUSTER>
46

>  <INDEX>
21621

$$$$
Bionet 1D-121
  MOE2020           3D

 35 36  0  0  0  0  0  0  0  0999 V2000
    1.7250    1.0640   -0.1770 N   0  3  0  0  0  0  0  0  0  0  0  0
    1.6060   -0.3320    0.1740 C   0  0  0  0  0  0  0  0  0  0  0  0
    0.5010   -0.7890    0.8990 C   0  0  0  0  0  0  0  0  0  0  0  0
    1.6670    1.8980    0.7400 O   0  5  0  0  0  0  0  0  0  0  0  0
   -0.5420    0.0250    1.2960 O   0  0  0  0  0  0  0  0  0  0  0  0
    2.6340   -1.2000   -0.2080 C   0  0  0  0  0  0  0  0  0  0  0  0
    1.9210    1.3360   -1.3720 O   0  0  0  0  0  0  0  0  0  0  0  0
    4.6650   -3.1370   -0.8800 N   0  0  0  0  0  0  0  0  0  0  0  0
    0.4550   -2.1280    1.2970 C   0  0  0  0  0  0  0  0  0  0  0  0
   -1.4190    0.4450    0.3070 C   0  0  0  0  0  0  0  0  0  0  0  0
    2.5620   -2.5410    0.1710 C   0  0  0  0  0  0  0  0  0  0  0  0
    3.6210   -3.4800   -0.1900 C   0  0  0  0  0  0  0  0  0  0  0  0
    1.4800   -3.0010    0.9250 C   0  0  0  0  0  0  0  0  0  0  0  0
    5.5030   -4.2410   -1.0700 O   0  0  0  0  0  0  0  0  0  0  0  0
   -3.2400    1.4510   -1.5580 C   0  0  0  0  0  0  0  0  0  0  0  0
   -2.0210    1.6870    0.5160 C   0  0  0  0  0  0  0  0  0  0  0  0
   -1.7480   -0.3090   -0.8300 C   0  0  0  0  0  0  0  0  0  0  0  0
   -2.9260    2.1930   -0.4180 C   0  0  0  0  0  0  0  0  0  0  0  0
   -2.6540    0.2010   -1.7610 C   0  0  0  0  0  0  0  0  0  0  0  0
   -4.2040    1.9930   -2.5620 C   0  0  0  0  0  0  0  0  0  0  0  0
    6.6400   -3.8320   -1.8310 C   0  0  0  0  0  0  0  0  0  0  0  0
    3.4710   -0.8380   -0.7870 H   0  0  0  0  0  0  0  0  0  0  0  0
   -0.3720   -2.4870    1.8910 H   0  0  0  0  0  0  0  0  0  0  0  0
    3.5310   -4.5070    0.1320 H   0  0  0  0  0  0  0  0  0  0  0  0
    1.4360   -4.0380    1.2220 H   0  0  0  0  0  0  0  0  0  0  0  0
   -1.7860    2.2570    1.4020 H   0  0  0  0  0  0  0  0  0  0  0  0
   -1.3020   -1.2800   -0.9840 H   0  0  0  0  0  0  0  0  0  0  0  0
   -3.3830    3.1580   -0.2590 H   0  0  0  0  0  0  0  0  0  0  0  0
   -2.9020   -0.3730   -2.6410 H   0  0  0  0  0  0  0  0  0  0  0  0
   -4.5550    2.9720   -2.2370 H   0  0  0  0  0  0  0  0  0  0  0  0
   -5.0520    1.3150   -2.6540 H   0  0  0  0  0  0  0  0  0  0  0  0
   -3.7080    2.0870   -3.5280 H   0  0  0  0  0  0  0  0  0  0  0  0
    7.3000   -4.6860   -1.9850 H   0  0  0  0  0  0  0  0  0  0  0  0
    7.1760   -3.0510   -1.2920 H   0  0  0  0  0  0  0  0  0  0  0  0
    6.3120   -3.4480   -2.7970 H   0  0  0  0  0  0  0  0  0  0  0  0
  1  2  1  0  0  0  0
  1  4  1  0  0  0  0
  1  7  2  0  0  0  0
  2  3  2  0  0  0  0
  2  6  1  0  0  0  0
  3  5  1  0  0  0  0
  3  9  1  0  0  0  0
  5 10  1  0  0  0  0
  6 11  2  0  0  0  0
  6 22  1  0  0  0  0
  8 12  2  0  0  0  0
  8 14  1  0  0  0  0
  9 13  2  0  0  0  0
  9 23  1  0  0  0  0
 10 16  2  0  0  0  0
 10 17  1  0  0  0  0
 11 12  1  0  0  0  0
 11 13  1  0  0  0  0
 12 24  1  0  0  0  0
 13 25  1  0  0  0  0
 14 21  1  0  0  0  0
 15 18  2  0  0  0  0
 15 19  1  0  0  0  0
 15 20  1  0  0  0  0
 16 18  1  0  0  0  0
 16 26  1  0  0  0  0
 17 19  2  0  0  0  0
 17 27  1  0  0  0  0
 18 28  1  0  0  0  0
 19 29  1  0  0  0  0
 20 30  1  0  0  0  0
 20 31  1  0  0  0  0
 20 32  1  0  0  0  0
 21 33  1  0  0  0  0
 21 34  1  0  0  0  0
 21 35  1  0  0  0  0
M  CHG  1   1   1
M  CHG  1   4  -1
M  END
>  <$CLUSTER>
47

>  <INDEX>
18655

$$$$
Bionet 3G-002
  MOE2020           3D

 28 29  0  0  1  0  0  0  0  0999 V2000
    0.5110    0.3500    0.0410 C   0  0  0  0  0  0  0  0  0  0  0  0
   -0.6720   -0.5690   -0.0670 C   0  0  0  0  0  0  0  0  0  0  0  0
   -3.0150   -2.0120   -0.2550 C   0  0  0  0  0  0  0  0  0  0  0  0
   -3.1080   -0.6570   -0.0670 N   0  0  0  0  0  0  0  0  0  0  0  0
   -4.3400   -2.7690   -0.3170 C   0  0  3  0  0  0  0  0  0  0  0  0
   -1.7700   -2.6580   -0.3290 C   0  0  0  0  0  0  0  0  0  0  0  0
   -0.5740   -1.9010   -0.2360 C   0  0  0  0  0  0  0  0  0  0  0  0
   -5.4260   -1.9810   -1.0600 C   0  0  0  0  0  0  0  0  0  0  0  0
   -6.1960   -1.3740   -1.5910 N   0  0  0  0  0  0  0  0  0  0  0  0
   -2.0060    0.1090    0.0270 C   0  0  0  0  0  0  0  0  0  0  0  0
   -4.8110   -3.1270    1.0940 C   0  0  0  0  0  0  0  0  0  0  0  0
    0.5260    1.0200    1.2260 F   0  0  0  0  0  0  0  0  0  0  0  0
    0.5110    1.2930   -0.9410 F   0  0  0  0  0  0  0  0  0  0  0  0
    1.7040   -0.3010   -0.0500 F   0  0  0  0  0  0  0  0  0  0  0  0
   -1.6060   -4.3630   -0.5200 Cl  0  0  0  0  0  0  0  0  0  0  0  0
   -4.9500   -4.4850    1.4590 C   0  0  0  0  0  0  0  0  0  0  0  0
   -5.1210   -2.1550    2.0560 C   0  0  0  0  0  0  0  0  0  0  0  0
   -5.5490   -2.5150    3.3340 C   0  0  0  0  0  0  0  0  0  0  0  0
   -5.3780   -4.8430    2.7380 C   0  0  0  0  0  0  0  0  0  0  0  0
   -5.6780   -3.8590    3.6740 C   0  0  0  0  0  0  0  0  0  0  0  0
   -4.1650   -3.6850   -0.8820 H   0  0  0  0  0  0  0  0  0  0  0  0
    0.3910   -2.3810   -0.2990 H   0  0  0  0  0  0  0  0  0  0  0  0
   -2.0800    1.1780    0.1660 H   0  0  0  0  0  0  0  0  0  0  0  0
   -4.7220   -5.2560    0.7380 H   0  0  0  0  0  0  0  0  0  0  0  0
   -5.0270   -1.1090    1.8030 H   0  0  0  0  0  0  0  0  0  0  0  0
   -5.7810   -1.7500    4.0610 H   0  0  0  0  0  0  0  0  0  0  0  0
   -5.4760   -5.8860    3.0010 H   0  0  0  0  0  0  0  0  0  0  0  0
   -6.0110   -4.1370    4.6630 H   0  0  0  0  0  0  0  0  0  0  0  0
  1  2  1  0  0  0  0
  1 12  1  0  0  0  0
  1 13  1  0  0  0  0
  1 14  1  0  0  0  0
  2  7  2  0  0  0  0
  2 10  1  0  0  0  0
  3  4  1  0  0  0  0
  3  5  1  0  0  0  0
  3  6  2  0  0  0  0
  4 10  2  0  0  0  0
  5  8  1  0  0  0  0
  5 11  1  0  0  0  0
  5 21  1  0  0  0  0
  6  7  1  0  0  0  0
  6 15  1  0  0  0  0
  7 22  1  0  0  0  0
  8  9  3  0  0  0  0
 10 23  1  0  0  0  0
 11 16  1  0  0  0  0
 11 17  2  0  0  0  0
 16 19  2  0  0  0  0
 16 24  1  0  0  0  0
 17 18  1  0  0  0  0
 17 25  1  0  0  0  0
 18 20  2  0  0  0  0
 18 26  1  0  0  0  0
 19 20  1  0  0  0  0
 19 27  1  0  0  0  0
 20 28  1  0  0  0  0
M  END
>  <$CLUSTER>
48

>  <INDEX>
31149

$$$$
Bionet 3W-0208
  MOE2020           3D

 33 35  0  0  0  0  0  0  0  0999 V2000
   -0.3630    0.4630   -0.5790 N   0  0  0  0  0  0  0  0  0  0  0  0
    0.2160    1.0760   -1.6930 C   0  0  0  0  0  0  0  0  0  0  0  0
   -1.7470    0.4550   -0.7660 C   0  0  0  0  0  0  0  0  0  0  0  0
    2.1690   -2.8670    4.4170 N   0  0  0  0  0  0  0  0  0  0  0  0
   -0.7990    1.4480   -2.5530 C   0  0  0  0  0  0  0  0  0  0  0  0
   -2.0180    1.0500   -1.9830 C   0  0  0  0  0  0  0  0  0  0  0  0
    2.4320   -1.6390    3.9360 C   0  0  0  0  0  0  0  0  0  0  0  0
    3.0040   -3.0090    5.4550 N   0  0  0  0  0  0  0  0  0  0  0  0
    0.3350   -0.0620    0.5480 C   0  0  0  0  0  0  0  0  0  0  0  0
    3.4560   -1.0170    4.7100 C   0  0  0  0  0  0  0  0  0  0  0  0
    1.7050   -1.0910    2.7610 C   0  0  0  0  0  0  0  0  0  0  0  0
    3.7980   -1.9290    5.6770 C   0  0  0  0  0  0  0  0  0  0  0  0
    1.3900    0.6590    1.1210 C   0  0  0  0  0  0  0  0  0  0  0  0
   -0.0300   -1.3000    1.0890 C   0  0  0  0  0  0  0  0  0  0  0  0
    0.6570   -1.8110    2.1930 C   0  0  0  0  0  0  0  0  0  0  0  0
    2.0710    0.1420    2.2260 C   0  0  0  0  0  0  0  0  0  0  0  0
   -2.7490   -0.0290    0.2280 C   0  0  0  0  0  0  0  0  0  0  0  0
    1.6820    1.2110   -1.9380 C   0  0  0  0  0  0  0  0  0  0  0  0
   -0.6760    1.9560   -3.4980 H   0  0  0  0  0  0  0  0  0  0  0  0
   -2.9970    1.1850   -2.4190 H   0  0  0  0  0  0  0  0  0  0  0  0
    3.0400   -3.8440    6.0220 H   0  0  0  0  0  0  0  0  0  0  0  0
    3.8750   -0.0320    4.5650 H   0  0  0  0  0  0  0  0  0  0  0  0
    4.5420   -1.8130    6.4510 H   0  0  0  0  0  0  0  0  0  0  0  0
    1.6770    1.6150    0.7090 H   0  0  0  0  0  0  0  0  0  0  0  0
   -0.8430   -1.8610    0.6530 H   0  0  0  0  0  0  0  0  0  0  0  0
    0.3740   -2.7680    2.6070 H   0  0  0  0  0  0  0  0  0  0  0  0
    2.8840    0.7000    2.6670 H   0  0  0  0  0  0  0  0  0  0  0  0
   -2.2320   -0.4510    1.0900 H   0  0  0  0  0  0  0  0  0  0  0  0
   -3.3750   -0.7950   -0.2300 H   0  0  0  0  0  0  0  0  0  0  0  0
   -3.3720    0.8050    0.5510 H   0  0  0  0  0  0  0  0  0  0  0  0
    2.2310    0.8310   -1.0770 H   0  0  0  0  0  0  0  0  0  0  0  0
    1.9290    2.2610   -2.0920 H   0  0  0  0  0  0  0  0  0  0  0  0
    1.9560    0.6400   -2.8250 H   0  0  0  0  0  0  0  0  0  0  0  0
  1  2  1  0  0  0  0
  1  3  1  0  0  0  0
  1  9  1  0  0  0  0
  2  5  2  0  0  0  0
  2 18  1  0  0  0  0
  3  6  2  0  0  0  0
  3 17  1  0  0  0  0
  4  7  2  0  0  0  0
  4  8  1  0  0  0  0
  5  6  1  0  0  0  0
  5 19  1  0  0  0  0
  6 20  1  0  0  0  0
  7 10  1  0  0  0  0
  7 11  1  0  0  0  0
  8 12  1  0  0  0  0
  8 21  1  0  0  0  0
  9 13  1  0  0  0  0
  9 14  2  0  0  0  0
 10 12  2  0  0  0  0
 10 22  1  0  0  0  0
 11 15  2  0  0  0  0
 11 16  1  0  0  0  0
 12 23  1  0  0  0  0
 13 16  2  0  0  0  0
 13 24  1  0  0  0  0
 14 15  1  0  0  0  0
 14 25  1  0  0  0  0
 15 26  1  0  0  0  0
 16 27  1  0  0  0  0
 17 28  1  0  0  0  0
 17 29  1  0  0  0  0
 17 30  1  0  0  0  0
 18 31  1  0  0  0  0
 18 32  1  0  0  0  0
 18 33  1  0  0  0  0
M  END
>  <$CLUSTER>
49

>  <INDEX>
32396

$$$$
BiotechCA 4173
  MOE2020           3D

 27 28  0  0  0  0  0  0  0  0999 V2000
   -0.7710    0.0370   -0.7400 C   0  0  0  0  0  0  0  0  0  0  0  0
    0.1880    0.3360    0.2190 C   0  0  0  0  0  0  0  0  0  0  0  0
    1.2300   -0.5840    0.1000 N   0  0  0  0  0  0  0  0  0  0  0  0
   -0.2830   -1.0980   -1.4540 C   0  0  0  0  0  0  0  0  0  0  0  0
    0.9350   -1.4530   -0.9210 C   0  0  0  0  0  0  0  0  0  0  0  0
   -2.0260    0.7530   -0.9620 C   0  0  0  0  0  0  0  0  0  0  0  0
    2.3630   -0.5730    0.9140 C   0  0  0  0  0  0  0  0  0  0  0  0
    0.3230    1.3270    1.2410 C   0  0  0  0  0  0  0  0  0  0  0  0
    2.4780    0.3620    1.8700 C   0  0  0  0  0  0  0  0  0  0  0  0
    1.4160    1.3390    2.0280 C   0  0  0  0  0  0  0  0  0  0  0  0
   -2.3530    1.7270   -0.2840 O   0  0  0  0  0  0  0  0  0  0  0  0
    1.7650   -2.5030   -1.3150 C   0  0  0  0  0  0  0  0  0  0  0  0
   -2.9360    0.2660   -2.0630 C   0  0  0  0  0  0  0  0  0  0  0  0
   -4.2140    1.0550   -2.2300 C   0  0  0  0  0  0  0  0  0  0  0  0
   -0.7840   -1.5940   -2.2730 H   0  0  0  0  0  0  0  0  0  0  0  0
    3.1400   -1.3100    0.7760 H   0  0  0  0  0  0  0  0  0  0  0  0
   -0.4520    2.0660    1.3820 H   0  0  0  0  0  0  0  0  0  0  0  0
    3.3470    0.3870    2.5110 H   0  0  0  0  0  0  0  0  0  0  0  0
    1.5040    2.0940    2.7950 H   0  0  0  0  0  0  0  0  0  0  0  0
    2.6580   -2.5140   -0.6900 H   0  0  0  0  0  0  0  0  0  0  0  0
    2.0520   -2.3670   -2.3580 H   0  0  0  0  0  0  0  0  0  0  0  0
    1.2330   -3.4480   -1.2050 H   0  0  0  0  0  0  0  0  0  0  0  0
   -3.2030   -0.7690   -1.8480 H   0  0  0  0  0  0  0  0  0  0  0  0
   -2.3850    0.3120   -3.0020 H   0  0  0  0  0  0  0  0  0  0  0  0
   -4.7840    1.0240   -1.3010 H   0  0  0  0  0  0  0  0  0  0  0  0
   -4.8070    0.6200   -3.0350 H   0  0  0  0  0  0  0  0  0  0  0  0
   -3.9730    2.0900   -2.4740 H   0  0  0  0  0  0  0  0  0  0  0  0
  1  2  2  0  0  0  0
  1  4  1  0  0  0  0
  1  6  1  0  0  0  0
  2  3  1  0  0  0  0
  2  8  1  0  0  0  0
  3  5  1  0  0  0  0
  3  7  1  0  0  0  0
  4  5  2  0  0  0  0
  4 15  1  0  0  0  0
  5 12  1  0  0  0  0
  6 11  2  0  0  0  0
  6 13  1  0  0  0  0
  7  9  2  0  0  0  0
  7 16  1  0  0  0  0
  8 10  2  0  0  0  0
  8 17  1  0  0  0  0
  9 10  1  0  0  0  0
  9 18  1  0  0  0  0
 10 19  1  0  0  0  0
 12 20  1  0  0  0  0
 12 21  1  0  0  0  0
 12 22  1  0  0  0  0
 13 14  1  0  0  0  0
 13 23  1  0  0  0  0
 13 24  1  0  0  0  0
 14 25  1  0  0  0  0
 14 26  1  0  0  0  0
 14 27  1  0  0  0  0
M  END
>  <$CLUSTER>
50

>  <INDEX>
33109

$$$$
Bionet 2G-385S
  MOE2020           3D

 33 34  0  0  0  0  0  0  0  0999 V2000
    1.5060    0.9280   -2.9660 C   0  0  0  0  0  0  0  0  0  0  0  0
    1.6370   -0.2970   -1.7800 S   0  0  0  0  0  0  0  0  0  0  0  0
   -0.1750    1.4980   -1.4520 N   0  0  0  0  0  0  0  0  0  0  0  0
    0.3230    0.4050   -0.9040 C   0  0  0  0  0  0  0  0  0  0  0  0
    0.4920    1.7920   -2.6240 C   0  0  0  0  0  0  0  0  0  0  0  0
    2.4270    0.8910   -4.0860 C   0  0  0  0  0  0  0  0  0  0  0  0
   -0.1570   -0.1690    0.3660 C   0  0  0  0  0  0  0  0  0  0  0  0
    3.3060    0.0600   -4.2890 O   0  0  0  0  0  0  0  0  0  0  0  0
    0.0400   -1.5140    0.7190 C   0  0  0  0  0  0  0  0  0  0  0  0
   -0.8620    0.6520    1.2630 C   0  0  0  0  0  0  0  0  0  0  0  0
    2.2060    1.9250   -4.9370 O   0  0  0  0  0  0  0  0  0  0  0  0
   -1.3420    0.1500    2.4760 C   0  0  0  0  0  0  0  0  0  0  0  0
   -0.4420   -2.0150    1.9330 C   0  0  0  0  0  0  0  0  0  0  0  0
    0.0250    3.0080   -3.3630 C   0  0  0  0  0  0  0  0  0  0  0  0
   -1.1300   -1.1840    2.8110 C   0  0  0  0  0  0  0  0  0  0  0  0
    3.0290    2.0400   -6.1020 C   0  0  0  0  0  0  0  0  0  0  0  0
   -1.6380   -1.7230    4.1080 C   0  0  0  0  0  0  0  0  0  0  0  0
    2.6080    3.2600   -6.8950 C   0  0  0  0  0  0  0  0  0  0  0  0
    0.5700   -2.1700    0.0450 H   0  0  0  0  0  0  0  0  0  0  0  0
   -1.0360    1.6880    1.0110 H   0  0  0  0  0  0  0  0  0  0  0  0
   -1.8780    0.7980    3.1540 H   0  0  0  0  0  0  0  0  0  0  0  0
   -0.2790   -3.0510    2.1900 H   0  0  0  0  0  0  0  0  0  0  0  0
    0.6230    3.1370   -4.2650 H   0  0  0  0  0  0  0  0  0  0  0  0
    0.1360    3.8850   -2.7260 H   0  0  0  0  0  0  0  0  0  0  0  0
   -1.0230    2.8870   -3.6360 H   0  0  0  0  0  0  0  0  0  0  0  0
    2.9140    1.1480   -6.7180 H   0  0  0  0  0  0  0  0  0  0  0  0
    4.0720    2.1430   -5.8020 H   0  0  0  0  0  0  0  0  0  0  0  0
   -2.1470   -0.9300    4.6570 H   0  0  0  0  0  0  0  0  0  0  0  0
   -0.8010   -2.0950    4.6990 H   0  0  0  0  0  0  0  0  0  0  0  0
   -2.3370   -2.5370    3.9150 H   0  0  0  0  0  0  0  0  0  0  0  0
    1.5650    3.1570   -7.1950 H   0  0  0  0  0  0  0  0  0  0  0  0
    3.2340    3.3500   -7.7830 H   0  0  0  0  0  0  0  0  0  0  0  0
    2.7220    4.1510   -6.2780 H   0  0  0  0  0  0  0  0  0  0  0  0
  1  2  1  0  0  0  0
  1  5  2  0  0  0  0
  1  6  1  0  0  0  0
  2  4  1  0  0  0  0
  3  4  2  0  0  0  0
  3  5  1  0  0  0  0
  4  7  1  0  0  0  0
  5 14  1  0  0  0  0
  6  8  2  0  0  0  0
  6 11  1  0  0  0  0
  7  9  1  0  0  0  0
  7 10  2  0  0  0  0
  9 13  2  0  0  0  0
  9 19  1  0  0  0  0
 10 12  1  0  0  0  0
 10 20  1  0  0  0  0
 11 16  1  0  0  0  0
 12 15  2  0  0  0  0
 12 21  1  0  0  0  0
 13 15  1  0  0  0  0
 13 22  1  0  0  0  0
 14 23  1  0  0  0  0
 14 24  1  0  0  0  0
 14 25  1  0  0  0  0
 15 17  1  0  0  0  0
 16 18  1  0  0  0  0
 16 26  1  0  0  0  0
 16 27  1  0  0  0  0
 17 28  1  0  0  0  0
 17 29  1  0  0  0  0
 17 30  1  0  0  0  0
 18 31  1  0  0  0  0
 18 32  1  0  0  0  0
 18 33  1  0  0  0  0
M  END
>  <$CLUSTER>
51

>  <INDEX>
25005

$$$$
Chembridge 5363217
  MOE2020           3D

 41 43  0  0  0  0  0  0  0  0999 V2000
    4.0220    1.9220   -4.0980 N   0  3  0  0  0  0  0  0  0  0  0  0
   -1.8290   -1.6000    0.9070 C   0  0  0  0  0  0  0  0  0  0  0  0
   -1.0200   -1.3330   -0.1990 C   0  0  0  0  0  0  0  0  0  0  0  0
   -1.6930   -0.8410    2.0670 C   0  0  0  0  0  0  0  0  0  0  0  0
   -0.7500    0.1840    2.1180 C   0  0  0  0  0  0  0  0  0  0  0  0
   -0.0700   -0.3060   -0.1550 C   0  0  0  0  0  0  0  0  0  0  0  0
    0.0610    0.4520    1.0110 C   0  0  0  0  0  0  0  0  0  0  0  0
    3.3900    1.9670   -2.7590 C   0  0  0  0  0  0  0  0  0  0  0  0
    2.3200    0.8840   -2.6660 C   0  0  0  0  0  0  0  0  0  0  0  0
    0.6590   -0.1450   -1.3030 O   0  0  0  0  0  0  0  0  0  0  0  0
    4.8200    3.2010   -4.3670 C   0  0  0  0  0  0  0  0  0  0  0  0
    4.9050    0.7230   -4.3540 C   0  0  0  0  0  0  0  0  0  0  0  0
   -2.7880   -2.6400    0.8580 C   0  0  0  0  0  0  0  0  0  0  0  0
    1.6420    0.8900   -1.3070 C   0  0  0  0  0  0  0  0  0  0  0  0
   -2.5150   -1.1160    3.1830 C   0  0  0  0  0  0  0  0  0  0  0  0
    5.9160    2.6820   -5.3180 C   0  0  0  0  0  0  0  0  0  0  0  0
    6.2550    1.3250   -4.7400 C   0  0  0  0  0  0  0  0  0  0  0  0
   -3.5940   -2.9020    1.9660 C   0  0  0  0  0  0  0  0  0  0  0  0
   -3.4570   -2.1430    3.1260 C   0  0  0  0  0  0  0  0  0  0  0  0
    3.2450    1.8400   -4.7380 H   0  0  0  0  0  0  0  0  0  0  0  0
   -1.1280   -1.9240   -1.0960 H   0  0  0  0  0  0  0  0  0  0  0  0
   -0.6450    0.7740    3.0170 H   0  0  0  0  0  0  0  0  0  0  0  0
    0.7910    1.2470    1.0580 H   0  0  0  0  0  0  0  0  0  0  0  0
    2.9320    2.9440   -2.6060 H   0  0  0  0  0  0  0  0  0  0  0  0
    4.1470    1.7960   -1.9940 H   0  0  0  0  0  0  0  0  0  0  0  0
    2.7850   -0.0890   -2.8260 H   0  0  0  0  0  0  0  0  0  0  0  0
    1.5700    1.0590   -3.4370 H   0  0  0  0  0  0  0  0  0  0  0  0
    5.2470    3.6050   -3.4490 H   0  0  0  0  0  0  0  0  0  0  0  0
    4.2040    3.9620   -4.8460 H   0  0  0  0  0  0  0  0  0  0  0  0
    4.5060    0.1160   -5.1670 H   0  0  0  0  0  0  0  0  0  0  0  0
    4.9970    0.1120   -3.4560 H   0  0  0  0  0  0  0  0  0  0  0  0
   -2.8960   -3.2320   -0.0390 H   0  0  0  0  0  0  0  0  0  0  0  0
    1.1650    1.8550   -1.1350 H   0  0  0  0  0  0  0  0  0  0  0  0
    2.3780    0.7050   -0.5250 H   0  0  0  0  0  0  0  0  0  0  0  0
   -2.4130   -0.5290    4.0840 H   0  0  0  0  0  0  0  0  0  0  0  0
    6.7850    3.3400   -5.3100 H   0  0  0  0  0  0  0  0  0  0  0  0
    5.5390    2.5910   -6.3370 H   0  0  0  0  0  0  0  0  0  0  0  0
    6.7550    0.7040   -5.4830 H   0  0  0  0  0  0  0  0  0  0  0  0
    6.8950    1.4290   -3.8640 H   0  0  0  0  0  0  0  0  0  0  0  0
   -4.3260   -3.6950    1.9240 H   0  0  0  0  0  0  0  0  0  0  0  0
   -4.0810   -2.3500    3.9830 H   0  0  0  0  0  0  0  0  0  0  0  0
  1  8  1  0  0  0  0
  1 11  1  0  0  0  0
  1 12  1  0  0  0  0
  1 20  1  0  0  0  0
  2  3  1  0  0  0  0
  2  4  2  0  0  0  0
  2 13  1  0  0  0  0
  3  6  2  0  0  0  0
  3 21  1  0  0  0  0
  4  5  1  0  0  0  0
  4 15  1  0  0  0  0
  5  7  2  0  0  0  0
  5 22  1  0  0  0  0
  6  7  1  0  0  0  0
  6 10  1  0  0  0  0
  7 23  1  0  0  0  0
  8  9  1  0  0  0  0
  8 24  1  0  0  0  0
  8 25  1  0  0  0  0
  9 14  1  0  0  0  0
  9 26  1  0  0  0  0
  9 27  1  0  0  0  0
 10 14  1  0  0  0  0
 11 16  1  0  0  0  0
 11 28  1  0  0  0  0
 11 29  1  0  0  0  0
 12 17  1  0  0  0  0
 12 30  1  0  0  0  0
 12 31  1  0  0  0  0
 13 18  2  0  0  0  0
 13 32  1  0  0  0  0
 14 33  1  0  0  0  0
 14 34  1  0  0  0  0
 15 19  2  0  0  0  0
 15 35  1  0  0  0  0
 16 17  1  0  0  0  0
 16 36  1  0  0  0  0
 16 37  1  0  0  0  0
 17 38  1  0  0  0  0
 17 39  1  0  0  0  0
 18 19  1  0  0  0  0
 18 40  1  0  0  0  0
 19 41  1  0  0  0  0
M  CHG  1   1   1
M  END
>  <$CLUSTER>
52

>  <INDEX>
43358

$$$$
Maybridge ML 00286
  MOE2020           3D

 27 27  0  0  0  0  0  0  0  0999 V2000
    0.4180   -0.1200   -0.3380 C   0  0  0  0  0  0  0  0  0  0  0  0
    3.9450   -2.0030   -3.0140 C   0  0  0  0  0  0  0  0  0  0  0  0
    2.2800   -1.0570   -1.5860 N   0  0  0  0  0  0  0  0  0  0  0  0
   -0.4490    0.9640   -0.1670 C   0  0  0  0  0  0  0  0  0  0  0  0
    3.1580   -0.8480   -2.5910 N   0  0  0  0  0  0  0  0  0  0  0  0
    0.3000   -1.2400    0.4890 C   0  0  0  0  0  0  0  0  0  0  0  0
    3.9170   -3.1180   -2.5870 O   0  0  0  0  0  0  0  0  0  0  0  0
    1.4470   -0.0830   -1.3790 C   0  0  0  0  0  0  0  0  0  0  0  0
   -1.4310    0.9300    0.8270 C   0  0  0  0  0  0  0  0  0  0  0  0
   -0.6810   -1.2760    1.4830 C   0  0  0  0  0  0  0  0  0  0  0  0
    4.7810   -1.6370   -4.0300 O   0  0  0  0  0  0  0  0  0  0  0  0
   -1.5450   -0.1920    1.6510 C   0  0  0  0  0  0  0  0  0  0  0  0
   -0.8110   -2.6480    2.4820 Cl  0  0  0  0  0  0  0  0  0  0  0  0
   -0.3390    2.0740   -0.9800 O   0  0  0  0  0  0  0  0  0  0  0  0
    5.6260   -2.6310   -4.5730 C   0  0  0  0  0  0  0  0  0  0  0  0
    6.4680   -2.0290   -5.6790 C   0  0  0  0  0  0  0  0  0  0  0  0
    3.2640    0.0570   -3.0260 H   0  0  0  0  0  0  0  0  0  0  0  0
    0.9680   -2.0790    0.3600 H   0  0  0  0  0  0  0  0  0  0  0  0
    1.5160    0.7950   -2.0040 H   0  0  0  0  0  0  0  0  0  0  0  0
   -2.0990    1.7680    0.9570 H   0  0  0  0  0  0  0  0  0  0  0  0
   -2.3030   -0.2210    2.4200 H   0  0  0  0  0  0  0  0  0  0  0  0
   -0.9710    2.7740   -0.7990 H   0  0  0  0  0  0  0  0  0  0  0  0
    5.0200   -3.4410   -4.9780 H   0  0  0  0  0  0  0  0  0  0  0  0
    6.2780   -3.0200   -3.7910 H   0  0  0  0  0  0  0  0  0  0  0  0
    5.8160   -1.6400   -6.4610 H   0  0  0  0  0  0  0  0  0  0  0  0
    7.1200   -2.7960   -6.0980 H   0  0  0  0  0  0  0  0  0  0  0  0
    7.0740   -1.2190   -5.2740 H   0  0  0  0  0  0  0  0  0  0  0  0
  1  4  2  0  0  0  0
  1  6  1  0  0  0  0
  1  8  1  0  0  0  0
  2  5  1  0  0  0  0
  2  7  2  0  0  0  0
  2 11  1  0  0  0  0
  3  5  1  0  0  0  0
  3  8  2  0  0  0  0
  4  9  1  0  0  0  0
  4 14  1  0  0  0  0
  5 17  1  0  0  0  0
  6 10  2  0  0  0  0
  6 18  1  0  0  0  0
  8 19  1  0  0  0  0
  9 12  2  0  0  0  0
  9 20  1  0  0  0  0
 10 12  1  0  0  0  0
 10 13  1  0  0  0  0
 11 15  1  0  0  0  0
 12 21  1  0  0  0  0
 14 22  1  0  0  0  0
 15 16  1  0  0  0  0
 15 23  1  0  0  0  0
 15 24  1  0  0  0  0
 16 25  1  0  0  0  0
 16 26  1  0  0  0  0
 16 27  1  0  0  0  0
M  END
>  <$CLUSTER>
53

>  <INDEX>
560497

$$$$
Labotest LT00409011
  MOE2020           3D

 44 47  0  0  0  0  0  0  0  0999 V2000
    3.6720   -0.6150    2.2040 C   0  0  0  0  0  0  0  0  0  0  0  0
    4.7710   -1.6020    1.9210 C   0  0  0  0  0  0  0  0  0  0  0  0
    5.6630   -1.8190    2.9460 N   0  0  0  0  0  0  0  0  0  0  0  0
    3.6340   -0.0320    3.3930 C   0  0  0  0  0  0  0  0  0  0  0  0
    4.6150   -0.3200    4.4150 C   0  0  0  0  0  0  0  0  0  0  0  0
    5.5940   -1.1980    4.1650 C   0  0  0  0  0  0  0  0  0  0  0  0
    2.6710   -0.3380    1.1250 C   0  0  0  0  0  0  0  0  0  0  0  0
    1.7020    0.5060    1.3190 N   0  0  0  0  0  0  0  0  0  0  0  0
    4.8620   -2.1770    0.8390 O   0  0  0  0  0  0  0  0  0  0  0  0
    0.8260    0.6750    0.2220 C   0  0  0  0  0  0  0  0  0  0  0  0
   -0.3750   -0.0680    0.1060 C   0  0  0  0  0  0  0  0  0  0  0  0
    2.6830    0.8950    3.7930 O   0  0  0  0  0  0  0  0  0  0  0  0
    6.7900   -2.8080    2.6160 C   0  0  0  0  0  0  0  0  0  0  0  0
   -1.2130    0.1500   -1.0190 C   0  0  0  0  0  0  0  0  0  0  0  0
    4.5200    0.3280    5.7110 C   0  0  0  0  0  0  0  0  0  0  0  0
    6.5690   -1.4910    5.2290 C   0  0  0  0  0  0  0  0  0  0  0  0
    0.3230    1.8390   -1.8490 C   0  0  0  0  0  0  0  0  0  0  0  0
    1.1530    1.6300   -0.7500 C   0  0  0  0  0  0  0  0  0  0  0  0
   -0.7750   -1.0220    1.0650 C   0  0  0  0  0  0  0  0  0  0  0  0
   -0.8510    1.1000   -1.9850 C   0  0  0  0  0  0  0  0  0  0  0  0
   -2.4020   -0.5850   -1.1560 C   0  0  0  0  0  0  0  0  0  0  0  0
    6.4600   -4.2220    3.0780 C   0  0  0  0  0  0  0  0  0  0  0  0
    5.4500    0.0520    6.7110 C   0  0  0  0  0  0  0  0  0  0  0  0
    6.4720   -0.8580    6.4690 C   0  0  0  0  0  0  0  0  0  0  0  0
   -1.9600   -1.7440    0.9140 C   0  0  0  0  0  0  0  0  0  0  0  0
   -2.7710   -1.5270   -0.1950 C   0  0  0  0  0  0  0  0  0  0  0  0
    2.7550   -0.8450    0.1750 H   0  0  0  0  0  0  0  0  0  0  0  0
    2.0190    1.1050    3.1330 H   0  0  0  0  0  0  0  0  0  0  0  0
    7.7030   -2.4800    3.1120 H   0  0  0  0  0  0  0  0  0  0  0  0
    6.9460   -2.8170    1.5370 H   0  0  0  0  0  0  0  0  0  0  0  0
    3.7220    1.0300    5.9010 H   0  0  0  0  0  0  0  0  0  0  0  0
    7.3640   -2.2000    5.0490 H   0  0  0  0  0  0  0  0  0  0  0  0
    0.5890    2.5730   -2.5950 H   0  0  0  0  0  0  0  0  0  0  0  0
    2.0580    2.2100   -0.6460 H   0  0  0  0  0  0  0  0  0  0  0  0
   -0.1540   -1.1970    1.9310 H   0  0  0  0  0  0  0  0  0  0  0  0
   -1.4880    1.2610   -2.8420 H   0  0  0  0  0  0  0  0  0  0  0  0
   -3.0370   -0.4190   -2.0140 H   0  0  0  0  0  0  0  0  0  0  0  0
    6.3020   -4.2240    4.1570 H   0  0  0  0  0  0  0  0  0  0  0  0
    7.2870   -4.8870    2.8300 H   0  0  0  0  0  0  0  0  0  0  0  0
    5.5550   -4.5660    2.5780 H   0  0  0  0  0  0  0  0  0  0  0  0
    5.3770    0.5430    7.6700 H   0  0  0  0  0  0  0  0  0  0  0  0
    7.1930   -1.0760    7.2430 H   0  0  0  0  0  0  0  0  0  0  0  0
   -2.2470   -2.4720    1.6590 H   0  0  0  0  0  0  0  0  0  0  0  0
   -3.6870   -2.0880   -0.3120 H   0  0  0  0  0  0  0  0  0  0  0  0
  1  2  1  0  0  0  0
  1  4  2  0  0  0  0
  1  7  1  0  0  0  0
  2  3  1  0  0  0  0
  2  9  2  0  0  0  0
  3  6  1  0  0  0  0
  3 13  1  0  0  0  0
  4  5  1  0  0  0  0
  4 12  1  0  0  0  0
  5  6  2  0  0  0  0
  5 15  1  0  0  0  0
  6 16  1  0  0  0  0
  7  8  2  0  0  0  0
  7 27  1  0  0  0  0
  8 10  1  0  0  0  0
 10 11  2  0  0  0  0
 10 18  1  0  0  0  0
 11 14  1  0  0  0  0
 11 19  1  0  0  0  0
 12 28  1  0  0  0  0
 13 22  1  0  0  0  0
 13 29  1  0  0  0  0
 13 30  1  0  0  0  0
 14 20  2  0  0  0  0
 14 21  1  0  0  0  0
 15 23  2  0  0  0  0
 15 31  1  0  0  0  0
 16 24  2  0  0  0  0
 16 32  1  0  0  0  0
 17 18  2  0  0  0  0
 17 20  1  0  0  0  0
 17 33  1  0  0  0  0
 18 34  1  0  0  0  0
 19 25  2  0  0  0  0
 19 35  1  0  0  0  0
 20 36  1  0  0  0  0
 21 26  2  0  0  0  0
 21 37  1  0  0  0  0
 22 38  1  0  0  0  0
 22 39  1  0  0  0  0
 22 40  1  0  0  0  0
 23 24  1  0  0  0  0
 23 41  1  0  0  0  0
 24 42  1  0  0  0  0
 25 26  1  0  0  0  0
 25 43  1  0  0  0  0
 26 44  1  0  0  0  0
M  END
>  <$CLUSTER>
54

>  <INDEX>
317851

$$$$
Chembridge 7782169
  MOE2020           3D

 32 33  0  0  0  0  0  0  0  0999 V2000
    0.2820    0.0870    0.2080 C   0  0  0  0  0  0  0  0  0  0  0  0
    1.5350   -0.4930    0.7050 C   0  0  0  0  0  0  0  0  0  0  0  0
    2.6490    0.2560    0.4980 N   0  0  0  0  0  0  0  0  0  0  0  0
   -0.5870   -0.6310   -0.6140 C   0  0  0  0  0  0  0  0  0  0  0  0
   -0.0490    1.3910    0.6060 C   0  0  0  0  0  0  0  0  0  0  0  0
    1.5540   -1.5730    1.2860 O   0  0  0  0  0  0  0  0  0  0  0  0
   -1.7860   -0.0430   -1.0370 C   0  0  0  0  0  0  0  0  0  0  0  0
   -1.2440    1.9710    0.1810 C   0  0  0  0  0  0  0  0  0  0  0  0
   -0.2390   -2.2200   -1.1950 Cl  0  0  0  0  0  0  0  0  0  0  0  0
    4.0010   -0.0980    0.8910 C   0  0  0  0  0  0  0  0  0  0  0  0
   -2.1130    1.2540   -0.6390 C   0  0  0  0  0  0  0  0  0  0  0  0
   -1.6930    3.6910    0.6950 Br  0  0  0  0  0  0  0  0  0  0  0  0
    4.6660   -0.9400   -0.1950 C   0  0  0  0  0  0  0  0  0  0  0  0
    4.8270    1.1450    1.2000 C   0  0  0  0  0  0  0  0  0  0  0  0
    6.1120   -1.2890    0.1520 C   0  0  0  0  0  0  0  0  0  0  0  0
    6.2690    0.8080    1.5520 C   0  0  0  0  0  0  0  0  0  0  0  0
    6.9270   -0.0380    0.4660 C   0  0  0  0  0  0  0  0  0  0  0  0
    2.5250    1.1410    0.0270 H   0  0  0  0  0  0  0  0  0  0  0  0
    0.6230    1.9470    1.2430 H   0  0  0  0  0  0  0  0  0  0  0  0
   -2.4600   -0.5960   -1.6740 H   0  0  0  0  0  0  0  0  0  0  0  0
    3.9470   -0.6920    1.8030 H   0  0  0  0  0  0  0  0  0  0  0  0
   -3.0400    1.7020   -0.9670 H   0  0  0  0  0  0  0  0  0  0  0  0
    4.6540   -0.3800   -1.1300 H   0  0  0  0  0  0  0  0  0  0  0  0
    4.1010   -1.8640   -0.3180 H   0  0  0  0  0  0  0  0  0  0  0  0
    4.3730    1.6670    2.0430 H   0  0  0  0  0  0  0  0  0  0  0  0
    4.8230    1.7950    0.3250 H   0  0  0  0  0  0  0  0  0  0  0  0
    6.5650   -1.8040   -0.6950 H   0  0  0  0  0  0  0  0  0  0  0  0
    6.1190   -1.9450    1.0230 H   0  0  0  0  0  0  0  0  0  0  0  0
    6.2840    0.2540    2.4900 H   0  0  0  0  0  0  0  0  0  0  0  0
    6.8310    1.7350    1.6680 H   0  0  0  0  0  0  0  0  0  0  0  0
    7.0190    0.5600   -0.4400 H   0  0  0  0  0  0  0  0  0  0  0  0
    7.9180   -0.3380    0.8050 H   0  0  0  0  0  0  0  0  0  0  0  0
  1  2  1  0  0  0  0
  1  4  2  0  0  0  0
  1  5  1  0  0  0  0
  2  3  1  0  0  0  0
  2  6  2  0  0  0  0
  3 10  1  0  0  0  0
  3 18  1  0  0  0  0
  4  7  1  0  0  0  0
  4  9  1  0  0  0  0
  5  8  2  0  0  0  0
  5 19  1  0  0  0  0
  7 11  2  0  0  0  0
  7 20  1  0  0  0  0
  8 11  1  0  0  0  0
  8 12  1  0  0  0  0
 10 13  1  0  0  0  0
 10 14  1  0  0  0  0
 10 21  1  0  0  0  0
 11 22  1  0  0  0  0
 13 15  1  0  0  0  0
 13 23  1  0  0  0  0
 13 24  1  0  0  0  0
 14 16  1  0  0  0  0
 14 25  1  0  0  0  0
 14 26  1  0  0  0  0
 15 17  1  0  0  0  0
 15 27  1  0  0  0  0
 15 28  1  0  0  0  0
 16 17  1  0  0  0  0
 16 29  1  0  0  0  0
 16 30  1  0  0  0  0
 17 31  1  0  0  0  0
 17 32  1  0  0  0  0
M  END
>  <$CLUSTER>
55

>  <INDEX>
85687

$$$$
Chembridge 5234119
  MOE2020           3D

 35 36  0  0  0  0  0  0  0  0999 V2000
   -0.3080    0.9970   -0.8870 C   0  0  0  0  0  0  0  0  0  0  0  0
    0.1650    0.1010    0.2030 C   0  0  0  0  0  0  0  0  0  0  0  0
   -1.0990    0.4120   -1.8480 N   0  0  0  0  0  0  0  0  0  0  0  0
   -0.1740   -1.2030    0.1940 C   0  0  0  0  0  0  0  0  0  0  0  0
   -1.4570   -0.9080   -1.8430 C   0  0  0  0  0  0  0  0  0  0  0  0
   -1.6980    1.1250   -2.9250 N   0  0  0  0  0  0  0  0  0  0  0  0
   -1.0320   -1.7190   -0.8690 C   0  0  0  0  0  0  0  0  0  0  0  0
    1.0290    0.6490    1.2580 C   0  0  0  0  0  0  0  0  0  0  0  0
   -0.0200    2.1910   -0.9240 O   0  0  0  0  0  0  0  0  0  0  0  0
   -2.0160    2.3670   -2.7390 C   0  0  0  0  0  0  0  0  0  0  0  0
    2.1790    1.0170    1.0430 O   0  0  0  0  0  0  0  0  0  0  0  0
    0.4450    0.7070    2.4810 N   0  0  0  0  0  0  0  0  0  0  0  0
   -2.6240    3.1870   -3.7620 C   0  0  0  0  0  0  0  0  0  0  0  0
   -3.8040    4.8250   -5.7030 C   0  0  0  0  0  0  0  0  0  0  0  0
    0.2710   -2.2440    1.1920 C   0  0  0  0  0  0  0  0  0  0  0  0
   -4.3640    5.6700   -6.5690 F   0  0  0  0  0  0  0  0  0  0  0  0
   -2.3190   -1.5210   -2.9500 C   0  0  0  0  0  0  0  0  0  0  0  0
   -2.9100    2.6790   -5.0340 C   0  0  0  0  0  0  0  0  0  0  0  0
   -2.9340    4.5250   -3.4650 C   0  0  0  0  0  0  0  0  0  0  0  0
   -3.4990    3.4970   -6.0020 C   0  0  0  0  0  0  0  0  0  0  0  0
   -3.5220    5.3390   -4.4350 C   0  0  0  0  0  0  0  0  0  0  0  0
   -1.3240   -2.7590   -0.8680 H   0  0  0  0  0  0  0  0  0  0  0  0
   -1.8170    2.8100   -1.7740 H   0  0  0  0  0  0  0  0  0  0  0  0
    0.9620    1.0670    3.2710 H   0  0  0  0  0  0  0  0  0  0  0  0
   -0.5060    0.3900    2.6020 H   0  0  0  0  0  0  0  0  0  0  0  0
   -0.1630   -3.2090    0.9290 H   0  0  0  0  0  0  0  0  0  0  0  0
   -0.0610   -1.9570    2.1900 H   0  0  0  0  0  0  0  0  0  0  0  0
    1.3580   -2.3190    1.1790 H   0  0  0  0  0  0  0  0  0  0  0  0
   -2.5900   -0.7480   -3.6690 H   0  0  0  0  0  0  0  0  0  0  0  0
   -3.2240   -1.9450   -2.5140 H   0  0  0  0  0  0  0  0  0  0  0  0
   -1.7570   -2.3070   -3.4550 H   0  0  0  0  0  0  0  0  0  0  0  0
   -2.6750    1.6510   -5.2690 H   0  0  0  0  0  0  0  0  0  0  0  0
   -2.7170    4.9240   -2.4850 H   0  0  0  0  0  0  0  0  0  0  0  0
   -3.7180    3.1010   -6.9820 H   0  0  0  0  0  0  0  0  0  0  0  0
   -3.7590    6.3670   -4.2050 H   0  0  0  0  0  0  0  0  0  0  0  0
  1  2  1  0  0  0  0
  1  3  1  0  0  0  0
  1  9  2  0  0  0  0
  2  4  2  0  0  0  0
  2  8  1  0  0  0  0
  3  5  1  0  0  0  0
  3  6  1  0  0  0  0
  4  7  1  0  0  0  0
  4 15  1  0  0  0  0
  5  7  2  0  0  0  0
  5 17  1  0  0  0  0
  6 10  2  0  0  0  0
  7 22  1  0  0  0  0
  8 11  2  0  0  0  0
  8 12  1  0  0  0  0
 10 13  1  0  0  0  0
 10 23  1  0  0  0  0
 12 24  1  0  0  0  0
 12 25  1  0  0  0  0
 13 18  2  0  0  0  0
 13 19  1  0  0  0  0
 14 16  1  0  0  0  0
 14 20  2  0  0  0  0
 14 21  1  0  0  0  0
 15 26  1  0  0  0  0
 15 27  1  0  0  0  0
 15 28  1  0  0  0  0
 17 29  1  0  0  0  0
 17 30  1  0  0  0  0
 17 31  1  0  0  0  0
 18 20  1  0  0  0  0
 18 32  1  0  0  0  0
 19 21  2  0  0  0  0
 19 33  1  0  0  0  0
 20 34  1  0  0  0  0
 21 35  1  0  0  0  0
M  END
>  <$CLUSTER>
56

>  <INDEX>
38777

$$$$
Labotest LT00996361
  MOE2020           3D

 28 31  0  0  0  0  0  0  0  0999 V2000
   -1.1760   -0.6270    0.5630 C   0  0  0  0  0  0  0  0  0  0  0  0
   -0.1020   -1.0340    1.3180 N   0  0  0  0  0  0  0  0  0  0  0  0
   -0.6840    0.2130   -0.4360 C   0  0  0  0  0  0  0  0  0  0  0  0
    0.7340    0.3010   -0.2600 C   0  0  0  0  0  0  0  0  0  0  0  0
    1.0670   -0.4870    0.8420 C   0  0  0  0  0  0  0  0  0  0  0  0
   -1.5950    0.7720   -1.3570 C   0  0  0  0  0  0  0  0  0  0  0  0
   -2.5350   -0.9370    0.6900 C   0  0  0  0  0  0  0  0  0  0  0  0
   -2.9570    0.4710   -1.2430 C   0  0  0  0  0  0  0  0  0  0  0  0
   -3.4180   -0.3710   -0.2340 C   0  0  0  0  0  0  0  0  0  0  0  0
    1.7670    0.9810   -0.9390 C   0  0  0  0  0  0  0  0  0  0  0  0
    2.3810   -0.6310    1.3010 C   0  0  0  0  0  0  0  0  0  0  0  0
   -3.8810    1.0320   -2.1680 C   0  0  0  0  0  0  0  0  0  0  0  0
   -4.8060   -0.6560   -0.1450 C   0  0  0  0  0  0  0  0  0  0  0  0
    3.0870    0.8480   -0.4920 C   0  0  0  0  0  0  0  0  0  0  0  0
    3.3870    0.0530    0.6120 C   0  0  0  0  0  0  0  0  0  0  0  0
   -5.7030   -0.1010   -1.0580 C   0  0  0  0  0  0  0  0  0  0  0  0
   -5.2410    0.7410   -2.0670 C   0  0  0  0  0  0  0  0  0  0  0  0
   -0.1630   -1.6520    2.1150 H   0  0  0  0  0  0  0  0  0  0  0  0
   -1.2450    1.4260   -2.1420 H   0  0  0  0  0  0  0  0  0  0  0  0
   -2.8890   -1.5900    1.4740 H   0  0  0  0  0  0  0  0  0  0  0  0
    1.5410    1.5990   -1.7960 H   0  0  0  0  0  0  0  0  0  0  0  0
    2.6100   -1.2490    2.1570 H   0  0  0  0  0  0  0  0  0  0  0  0
   -3.5280    1.6860   -2.9520 H   0  0  0  0  0  0  0  0  0  0  0  0
   -5.1700   -1.3080    0.6360 H   0  0  0  0  0  0  0  0  0  0  0  0
    3.8810    1.3670   -1.0080 H   0  0  0  0  0  0  0  0  0  0  0  0
    4.4120   -0.0360    0.9400 H   0  0  0  0  0  0  0  0  0  0  0  0
   -6.7570   -0.3240   -0.9820 H   0  0  0  0  0  0  0  0  0  0  0  0
   -5.9380    1.1690   -2.7730 H   0  0  0  0  0  0  0  0  0  0  0  0
  1  2  1  0  0  0  0
  1  3  2  0  0  0  0
  1  7  1  0  0  0  0
  2  5  1  0  0  0  0
  2 18  1  0  0  0  0
  3  4  1  0  0  0  0
  3  6  1  0  0  0  0
  4  5  2  0  0  0  0
  4 10  1  0  0  0  0
  5 11  1  0  0  0  0
  6  8  2  0  0  0  0
  6 19  1  0  0  0  0
  7  9  2  0  0  0  0
  7 20  1  0  0  0  0
  8  9  1  0  0  0  0
  8 12  1  0  0  0  0
  9 13  1  0  0  0  0
 10 14  2  0  0  0  0
 10 21  1  0  0  0  0
 11 15  2  0  0  0  0
 11 22  1  0  0  0  0
 12 17  2  0  0  0  0
 12 23  1  0  0  0  0
 13 16  2  0  0  0  0
 13 24  1  0  0  0  0
 14 15  1  0  0  0  0
 14 25  1  0  0  0  0
 15 26  1  0  0  0  0
 16 17  1  0  0  0  0
 16 27  1  0  0  0  0
 17 28  1  0  0  0  0
M  END
>  <$CLUSTER>
57

>  <INDEX>
321803

$$$$
Chembridge 5266789
  MOE2020           3D

 37 38  0  0  0  0  0  0  0  0999 V2000
    0.6180   -0.8840    1.4730 C   0  0  0  0  0  0  0  0  0  0  0  0
    1.3520   -0.4880    2.7080 C   0  0  0  0  0  0  0  0  0  0  0  0
    0.0300    0.0320    0.6730 C   0  0  0  0  0  0  0  0  0  0  0  0
    0.0630    1.4150    1.1180 C   0  0  0  0  0  0  0  0  0  0  0  0
    1.4160    0.8480    3.0200 O   0  0  0  0  0  0  0  0  0  0  0  0
    0.7330    1.7560    2.2170 C   0  0  0  0  0  0  0  0  0  0  0  0
   -0.6560   -0.2870   -0.4930 N   0  0  0  0  0  0  0  0  0  0  0  0
    0.5760   -2.3180    1.0550 C   0  0  0  0  0  0  0  0  0  0  0  0
    1.8820   -1.3260    3.4300 O   0  0  0  0  0  0  0  0  0  0  0  0
   -0.4890   -2.8710    0.7910 O   0  0  0  0  0  0  0  0  0  0  0  0
   -0.9090    0.4620   -1.6600 C   0  0  0  0  0  0  0  0  0  0  0  0
    0.8240    3.1730    2.7160 C   0  0  0  0  0  0  0  0  0  0  0  0
    1.8820   -3.0640    0.9790 C   0  0  0  0  0  0  0  0  0  0  0  0
   -0.1210    1.5470   -2.0720 C   0  0  0  0  0  0  0  0  0  0  0  0
   -2.0310    0.1300   -2.4390 C   0  0  0  0  0  0  0  0  0  0  0  0
    1.7460   -4.5120    0.5470 C   0  0  0  0  0  0  0  0  0  0  0  0
    3.0900   -5.2180    0.4830 C   0  0  0  0  0  0  0  0  0  0  0  0
   -2.3510    0.8530   -3.5910 C   0  0  0  0  0  0  0  0  0  0  0  0
   -0.4400    2.2710   -3.2250 C   0  0  0  0  0  0  0  0  0  0  0  0
   -1.5560    1.9250   -3.9830 C   0  0  0  0  0  0  0  0  0  0  0  0
   -0.4600    2.1720    0.5530 H   0  0  0  0  0  0  0  0  0  0  0  0
   -1.0410   -1.2210   -0.5060 H   0  0  0  0  0  0  0  0  0  0  0  0
    1.4220    3.2000    3.6270 H   0  0  0  0  0  0  0  0  0  0  0  0
   -0.1770    3.5490    2.9280 H   0  0  0  0  0  0  0  0  0  0  0  0
    1.2930    3.7970    1.9550 H   0  0  0  0  0  0  0  0  0  0  0  0
    2.3450   -3.0430    1.9650 H   0  0  0  0  0  0  0  0  0  0  0  0
    2.5270   -2.5530    0.2640 H   0  0  0  0  0  0  0  0  0  0  0  0
    0.7450    1.8270   -1.4900 H   0  0  0  0  0  0  0  0  0  0  0  0
   -2.6570   -0.6990   -2.1420 H   0  0  0  0  0  0  0  0  0  0  0  0
    1.2860   -4.5420   -0.4410 H   0  0  0  0  0  0  0  0  0  0  0  0
    1.1090   -5.0330    1.2610 H   0  0  0  0  0  0  0  0  0  0  0  0
    3.7360   -4.7050   -0.2290 H   0  0  0  0  0  0  0  0  0  0  0  0
    2.9440   -6.2500    0.1630 H   0  0  0  0  0  0  0  0  0  0  0  0
    3.5540   -5.2060    1.4690 H   0  0  0  0  0  0  0  0  0  0  0  0
   -3.2160    0.5790   -4.1770 H   0  0  0  0  0  0  0  0  0  0  0  0
    0.1810    3.1010   -3.5290 H   0  0  0  0  0  0  0  0  0  0  0  0
   -1.8030    2.4870   -4.8720 H   0  0  0  0  0  0  0  0  0  0  0  0
  1  2  1  0  0  0  0
  1  3  2  0  0  0  0
  1  8  1  0  0  0  0
  2  5  1  0  0  0  0
  2  9  2  0  0  0  0
  3  4  1  0  0  0  0
  3  7  1  0  0  0  0
  4  6  2  0  0  0  0
  4 21  1  0  0  0  0
  5  6  1  0  0  0  0
  6 12  1  0  0  0  0
  7 11  1  0  0  0  0
  7 22  1  0  0  0  0
  8 10  2  0  0  0  0
  8 13  1  0  0  0  0
 11 14  1  0  0  0  0
 11 15  2  0  0  0  0
 12 23  1  0  0  0  0
 12 24  1  0  0  0  0
 12 25  1  0  0  0  0
 13 16  1  0  0  0  0
 13 26  1  0  0  0  0
 13 27  1  0  0  0  0
 14 19  2  0  0  0  0
 14 28  1  0  0  0  0
 15 18  1  0  0  0  0
 15 29  1  0  0  0  0
 16 17  1  0  0  0  0
 16 30  1  0  0  0  0
 16 31  1  0  0  0  0
 17 32  1  0  0  0  0
 17 33  1  0  0  0  0
 17 34  1  0  0  0  0
 18 20  2  0  0  0  0
 18 35  1  0  0  0  0
 19 20  1  0  0  0  0
 19 36  1  0  0  0  0
 20 37  1  0  0  0  0
M  END
>  <$CLUSTER>
58

>  <INDEX>
40326

$$$$
Akos LT-1117 X 229
  MOE2020           3D

 38 40  0  0  0  0  0  0  0  0999 V2000
    0.7360    0.0510   -1.6840 C   0  0  0  0  0  0  0  0  0  0  0  0
    0.5190   -0.7500   -0.6090 O   0  0  0  0  0  0  0  0  0  0  0  0
    0.4150    1.3550   -1.3890 C   0  0  0  0  0  0  0  0  0  0  0  0
    0.0520    0.0510    0.3910 C   0  0  0  0  0  0  0  0  0  0  0  0
   -0.0280    1.3570   -0.0450 C   0  0  0  0  0  0  0  0  0  0  0  0
    1.2000   -0.4620   -2.8940 C   0  0  0  0  0  0  0  0  0  0  0  0
   -1.5370   -1.3670    1.6270 N   0  3  0  0  0  0  0  0  0  0  0  0
   -0.2590   -0.6120    1.6720 C   0  0  0  0  0  0  0  0  0  0  0  0
   -3.2500   -2.7870    2.6670 C   0  0  0  0  0  0  0  0  0  0  0  0
   -1.9250   -2.0650    2.8750 C   0  0  0  0  0  0  0  0  0  0  0  0
    2.1340    0.2240   -3.6860 C   0  0  0  0  0  0  0  0  0  0  0  0
    0.7550   -1.7210   -3.3300 C   0  0  0  0  0  0  0  0  0  0  0  0
   -4.4670   -2.1410    2.9350 C   0  0  0  0  0  0  0  0  0  0  0  0
   -3.2760   -4.1120    2.2030 C   0  0  0  0  0  0  0  0  0  0  0  0
    1.2200   -2.2700   -4.5270 C   0  0  0  0  0  0  0  0  0  0  0  0
    2.5990   -0.3270   -4.8830 C   0  0  0  0  0  0  0  0  0  0  0  0
   -4.4910   -4.7710    2.0080 C   0  0  0  0  0  0  0  0  0  0  0  0
   -5.6800   -2.8020    2.7380 C   0  0  0  0  0  0  0  0  0  0  0  0
    2.1410   -1.5720   -5.3040 C   0  0  0  0  0  0  0  0  0  0  0  0
   -5.6910   -4.1170    2.2770 C   0  0  0  0  0  0  0  0  0  0  0  0
    0.4870    2.2060   -2.0500 H   0  0  0  0  0  0  0  0  0  0  0  0
   -0.3620    2.2110    0.5260 H   0  0  0  0  0  0  0  0  0  0  0  0
   -1.4600   -2.0600    0.8970 H   0  0  0  0  0  0  0  0  0  0  0  0
   -2.2730   -0.7150    1.3960 H   0  0  0  0  0  0  0  0  0  0  0  0
   -0.3290    0.1480    2.4510 H   0  0  0  0  0  0  0  0  0  0  0  0
    0.5480   -1.3050    1.9120 H   0  0  0  0  0  0  0  0  0  0  0  0
   -2.0310   -1.3370    3.6800 H   0  0  0  0  0  0  0  0  0  0  0  0
   -1.1550   -2.7900    3.1400 H   0  0  0  0  0  0  0  0  0  0  0  0
    2.4980    1.1890   -3.3660 H   0  0  0  0  0  0  0  0  0  0  0  0
    0.0440   -2.2720   -2.7320 H   0  0  0  0  0  0  0  0  0  0  0  0
   -4.4650   -1.1230    3.2970 H   0  0  0  0  0  0  0  0  0  0  0  0
   -2.3490   -4.6250    1.9950 H   0  0  0  0  0  0  0  0  0  0  0  0
    0.8650   -3.2370   -4.8510 H   0  0  0  0  0  0  0  0  0  0  0  0
    3.3150    0.2150   -5.4830 H   0  0  0  0  0  0  0  0  0  0  0  0
   -4.5010   -5.7890    1.6480 H   0  0  0  0  0  0  0  0  0  0  0  0
   -6.6110   -2.2940    2.9430 H   0  0  0  0  0  0  0  0  0  0  0  0
    2.4990   -1.9960   -6.2310 H   0  0  0  0  0  0  0  0  0  0  0  0
   -6.6300   -4.6290    2.1280 H   0  0  0  0  0  0  0  0  0  0  0  0
  1  2  1  0  0  0  0
  1  3  2  0  0  0  0
  1  6  1  0  0  0  0
  2  4  1  0  0  0  0
  3  5  1  0  0  0  0
  3 21  1  0  0  0  0
  4  5  2  0  0  0  0
  4  8  1  0  0  0  0
  5 22  1  0  0  0  0
  6 11  1  0  0  0  0
  6 12  2  0  0  0  0
  7  8  1  0  0  0  0
  7 10  1  0  0  0  0
  7 23  1  0  0  0  0
  7 24  1  0  0  0  0
  8 25  1  0  0  0  0
  8 26  1  0  0  0  0
  9 10  1  0  0  0  0
  9 13  1  0  0  0  0
  9 14  2  0  0  0  0
 10 27  1  0  0  0  0
 10 28  1  0  0  0  0
 11 16  2  0  0  0  0
 11 29  1  0  0  0  0
 12 15  1  0  0  0  0
 12 30  1  0  0  0  0
 13 18  2  0  0  0  0
 13 31  1  0  0  0  0
 14 17  1  0  0  0  0
 14 32  1  0  0  0  0
 15 19  2  0  0  0  0
 15 33  1  0  0  0  0
 16 19  1  0  0  0  0
 16 34  1  0  0  0  0
 17 20  2  0  0  0  0
 17 35  1  0  0  0  0
 18 20  1  0  0  0  0
 18 36  1  0  0  0  0
 19 37  1  0  0  0  0
 20 38  1  0  0  0  0
M  CHG  1   7   1
M  END
>  <$CLUSTER>
59

>  <INDEX>
206961

$$$$
Chemical Block A0158/0007075
  MOE2020           3D

 36 38  0  0  0  0  0  0  0  0999 V2000
   -1.5680    0.2280   -0.7030 N   0  3  0  0  0  0  0  0  0  0  0  0
   -0.2820   -0.1410   -0.1780 C   0  0  0  0  0  0  0  0  0  0  0  0
    0.4930    0.8130    0.4780 C   0  0  0  0  0  0  0  0  0  0  0  0
    6.5370    5.2620    4.6790 N   0  0  0  0  0  0  0  0  0  0  0  0
    1.7400    0.4410    0.9850 C   0  0  0  0  0  0  0  0  0  0  0  0
    5.8280    4.2370    4.0880 C   0  0  0  0  0  0  0  0  0  0  0  0
    3.7430    1.1380    2.1730 N   0  0  0  0  0  0  0  0  0  0  0  0
    2.5760    1.4210    1.6780 C   0  0  0  0  0  0  0  0  0  0  0  0
   -2.5260    0.2460    0.0850 O   0  5  0  0  0  0  0  0  0  0  0  0
    4.9650    3.4200    4.8200 C   0  0  0  0  0  0  0  0  0  0  0  0
   -1.6410    0.4570   -1.9220 O   0  0  0  0  0  0  0  0  0  0  0  0
    4.2710    2.3890    4.1820 C   0  0  0  0  0  0  0  0  0  0  0  0
    4.4290    2.1750    2.8080 C   0  0  0  0  0  0  0  0  0  0  0  0
    6.0010    4.0210    2.7200 C   0  0  0  0  0  0  0  0  0  0  0  0
    6.3600    5.4560    6.0120 C   0  0  0  0  0  0  0  0  0  0  0  0
    4.8090    3.6560    6.1930 C   0  0  0  0  0  0  0  0  0  0  0  0
    0.0430    2.1070    0.6180 O   0  0  0  0  0  0  0  0  0  0  0  0
    0.1530   -1.4560   -0.3490 C   0  0  0  0  0  0  0  0  0  0  0  0
    5.3070    2.9880    2.0840 C   0  0  0  0  0  0  0  0  0  0  0  0
    5.5170    4.6890    6.8000 C   0  0  0  0  0  0  0  0  0  0  0  0
    2.1880   -0.8750    0.8250 C   0  0  0  0  0  0  0  0  0  0  0  0
    1.4000   -1.8190    0.1610 C   0  0  0  0  0  0  0  0  0  0  0  0
    7.1610    6.6120    6.6520 C   0  0  0  0  0  0  0  0  0  0  0  0
    2.2050    2.4300    1.7830 H   0  0  0  0  0  0  0  0  0  0  0  0
    3.6090    1.7540    4.7520 H   0  0  0  0  0  0  0  0  0  0  0  0
    6.6700    4.6510    2.1540 H   0  0  0  0  0  0  0  0  0  0  0  0
    4.1420    3.0390    6.7770 H   0  0  0  0  0  0  0  0  0  0  0  0
    0.6440    2.6980    1.0770 H   0  0  0  0  0  0  0  0  0  0  0  0
   -0.4630   -2.1780   -0.8650 H   0  0  0  0  0  0  0  0  0  0  0  0
    5.4500    2.8170    1.0270 H   0  0  0  0  0  0  0  0  0  0  0  0
    5.4120    4.8870    7.8560 H   0  0  0  0  0  0  0  0  0  0  0  0
    3.1520   -1.1640    1.2180 H   0  0  0  0  0  0  0  0  0  0  0  0
    1.7570   -2.8310    0.0420 H   0  0  0  0  0  0  0  0  0  0  0  0
    7.7660    7.1010    5.8880 H   0  0  0  0  0  0  0  0  0  0  0  0
    7.8110    6.2150    7.4320 H   0  0  0  0  0  0  0  0  0  0  0  0
    6.4710    7.3350    7.0870 H   0  0  0  0  0  0  0  0  0  0  0  0
  1  2  1  0  0  0  0
  1  9  1  0  0  0  0
  1 11  2  0  0  0  0
  2  3  1  0  0  0  0
  2 18  2  0  0  0  0
  3  5  2  0  0  0  0
  3 17  1  0  0  0  0
  4  6  1  0  0  0  0
  4 15  2  0  0  0  0
  5  8  1  0  0  0  0
  5 21  1  0  0  0  0
  6 10  1  0  0  0  0
  6 14  2  0  0  0  0
  7  8  2  0  0  0  0
  7 13  1  0  0  0  0
  8 24  1  0  0  0  0
 10 12  2  0  0  0  0
 10 16  1  0  0  0  0
 12 13  1  0  0  0  0
 12 25  1  0  0  0  0
 13 19  2  0  0  0  0
 14 19  1  0  0  0  0
 14 26  1  0  0  0  0
 15 20  1  0  0  0  0
 15 23  1  0  0  0  0
 16 20  2  0  0  0  0
 16 27  1  0  0  0  0
 17 28  1  0  0  0  0
 18 22  1  0  0  0  0
 18 29  1  0  0  0  0
 19 30  1  0  0  0  0
 20 31  1  0  0  0  0
 21 22  2  0  0  0  0
 21 32  1  0  0  0  0
 22 33  1  0  0  0  0
 23 34  1  0  0  0  0
 23 35  1  0  0  0  0
 23 36  1  0  0  0  0
M  CHG  1   1   1
M  CHG  1   9  -1
M  END
>  <$CLUSTER>
60

>  <INDEX>
112364

$$$$
Chembridge 5285134
  MOE2020           3D

 42 44  0  0  0  0  0  0  0  0999 V2000
   -0.7780   -0.1430   -2.2720 C   0  0  0  0  0  0  0  0  0  0  0  0
   -1.3710   -2.4890   -2.9730 N   0  3  0  0  0  0  0  0  0  0  0  0
    0.1090    0.2820   -0.0900 N   0  0  0  0  0  0  0  0  0  0  0  0
   -0.7480   -0.4540   -0.8460 N   0  0  0  0  0  0  0  0  0  0  0  0
    2.7090    2.2320    2.6950 C   0  0  0  0  0  0  0  0  0  0  0  0
   -1.7820   -1.0450   -2.9850 C   0  0  0  0  0  0  0  0  0  0  0  0
   -0.7990   -5.4720   -4.1030 S   0  0  0  0  0  0  0  0  0  0  0  0
   -0.1320    0.6890   -2.8490 O   0  0  0  0  0  0  0  0  0  0  0  0
    1.8730    1.6330    1.7490 C   0  0  0  0  0  0  0  0  0  0  0  0
    2.8230    1.6840    3.9740 C   0  0  0  0  0  0  0  0  0  0  0  0
    0.2540   -0.1830    1.1150 C   0  0  0  0  0  0  0  0  0  0  0  0
    2.1010    0.5380    4.3100 C   0  0  0  0  0  0  0  0  0  0  0  0
    1.1640    0.4980    2.0920 C   0  0  0  0  0  0  0  0  0  0  0  0
    1.2640   -0.0640    3.3680 C   0  0  0  0  0  0  0  0  0  0  0  0
   -2.5070   -3.3990   -3.3290 C   0  0  0  0  0  0  0  0  0  0  0  0
   -0.1560   -2.7800   -3.8200 C   0  0  0  0  0  0  0  0  0  0  0  0
   -2.2090   -4.8890   -3.0930 C   0  0  0  0  0  0  0  0  0  0  0  0
    0.4090   -4.1780   -3.6360 C   0  0  0  0  0  0  0  0  0  0  0  0
    3.4480    3.3960    2.3680 C   0  0  0  0  0  0  0  0  0  0  0  0
    3.6740    2.3010    4.9270 C   0  0  0  0  0  0  0  0  0  0  0  0
    4.2820    3.9930    3.3140 C   0  0  0  0  0  0  0  0  0  0  0  0
    4.3950    3.4460    4.5900 C   0  0  0  0  0  0  0  0  0  0  0  0
   -1.1020   -2.6800   -2.0180 H   0  0  0  0  0  0  0  0  0  0  0  0
   -1.3310   -1.1750   -0.4440 H   0  0  0  0  0  0  0  0  0  0  0  0
   -1.8730   -0.7160   -4.0200 H   0  0  0  0  0  0  0  0  0  0  0  0
   -2.7480   -0.9530   -2.4890 H   0  0  0  0  0  0  0  0  0  0  0  0
    1.7820    2.0540    0.7580 H   0  0  0  0  0  0  0  0  0  0  0  0
   -0.2860   -1.0690    1.4150 H   0  0  0  0  0  0  0  0  0  0  0  0
    2.1900    0.1160    5.3000 H   0  0  0  0  0  0  0  0  0  0  0  0
    0.7020   -0.9510    3.6220 H   0  0  0  0  0  0  0  0  0  0  0  0
   -2.7410   -3.2590   -4.3840 H   0  0  0  0  0  0  0  0  0  0  0  0
   -3.3710   -3.1220   -2.7250 H   0  0  0  0  0  0  0  0  0  0  0  0
    0.6210   -2.0600   -3.5620 H   0  0  0  0  0  0  0  0  0  0  0  0
   -0.4320   -2.6580   -4.8670 H   0  0  0  0  0  0  0  0  0  0  0  0
   -1.9730   -5.0390   -2.0390 H   0  0  0  0  0  0  0  0  0  0  0  0
   -3.0930   -5.4710   -3.3540 H   0  0  0  0  0  0  0  0  0  0  0  0
    1.2970   -4.2840   -4.2590 H   0  0  0  0  0  0  0  0  0  0  0  0
    0.6820   -4.3120   -2.5890 H   0  0  0  0  0  0  0  0  0  0  0  0
    3.3650    3.8240    1.3800 H   0  0  0  0  0  0  0  0  0  0  0  0
    3.7640    1.8820    5.9180 H   0  0  0  0  0  0  0  0  0  0  0  0
    4.8410    4.8810    3.0560 H   0  0  0  0  0  0  0  0  0  0  0  0
    5.0420    3.9100    5.3200 H   0  0  0  0  0  0  0  0  0  0  0  0
  1  4  1  0  0  0  0
  1  6  1  0  0  0  0
  1  8  2  0  0  0  0
  2  6  1  0  0  0  0
  2 15  1  0  0  0  0
  2 16  1  0  0  0  0
  2 23  1  0  0  0  0
  3  4  1  0  0  0  0
  3 11  2  0  0  0  0
  4 24  1  0  0  0  0
  5  9  1  0  0  0  0
  5 10  2  0  0  0  0
  5 19  1  0  0  0  0
  6 25  1  0  0  0  0
  6 26  1  0  0  0  0
  7 17  1  0  0  0  0
  7 18  1  0  0  0  0
  9 13  2  0  0  0  0
  9 27  1  0  0  0  0
 10 12  1  0  0  0  0
 10 20  1  0  0  0  0
 11 13  1  0  0  0  0
 11 28  1  0  0  0  0
 12 14  2  0  0  0  0
 12 29  1  0  0  0  0
 13 14  1  0  0  0  0
 14 30  1  0  0  0  0
 15 17  1  0  0  0  0
 15 31  1  0  0  0  0
 15 32  1  0  0  0  0
 16 18  1  0  0  0  0
 16 33  1  0  0  0  0
 16 34  1  0  0  0  0
 17 35  1  0  0  0  0
 17 36  1  0  0  0  0
 18 37  1  0  0  0  0
 18 38  1  0  0  0  0
 19 21  2  0  0  0  0
 19 39  1  0  0  0  0
 20 22  2  0  0  0  0
 20 40  1  0  0  0  0
 21 22  1  0  0  0  0
 21 41  1  0  0  0  0
 22 42  1  0  0  0  0
M  CHG  1   2   1
M  END
>  <$CLUSTER>
61

>  <INDEX>
41182

$$$$
Chembridge 5346089
  MOE2020           3D

 47 49  0  0  0  0  0  0  0  0999 V2000
   -0.9510   -2.3770    5.7720 S   0  0  0  0  0  0  0  0  0  0  0  0
   -2.0610   -2.3810    1.8930 C   0  0  0  0  0  0  0  0  0  0  0  0
   -1.3130   -2.3220    0.5840 C   0  0  0  0  0  0  0  0  0  0  0  0
   -1.9100   -2.4260    4.2960 C   0  0  0  0  0  0  0  0  0  0  0  0
   -0.6080   -3.9900    6.0600 N   0  0  0  0  0  0  0  0  0  0  0  0
   -1.2780   -2.3600    3.0540 C   0  0  0  0  0  0  0  0  0  0  0  0
   -0.4190   -1.3050    0.4390 N   0  0  0  0  0  0  0  0  0  0  0  0
    0.3050   -1.7070    5.4820 O   0  0  0  0  0  0  0  0  0  0  0  0
   -1.7910   -1.9060    6.8590 O   0  0  0  0  0  0  0  0  0  0  0  0
   -3.4300   -2.4460    1.9460 C   0  0  0  0  0  0  0  0  0  0  0  0
   -1.5370   -3.1760   -0.2760 O   0  0  0  0  0  0  0  0  0  0  0  0
   -3.2990   -2.5050    4.3670 C   0  0  0  0  0  0  0  0  0  0  0  0
   -4.0590   -2.5130    3.1960 C   0  0  0  0  0  0  0  0  0  0  0  0
   -4.4490   -2.4110    0.5520 Cl  0  0  0  0  0  0  0  0  0  0  0  0
   -1.7300   -4.8770    6.4680 C   0  0  0  0  0  0  0  0  0  0  0  0
    0.3190   -4.6830    5.1260 C   0  0  0  0  0  0  0  0  0  0  0  0
   -0.0980   -0.2550    1.4120 C   0  0  0  0  0  0  0  0  0  0  0  0
    0.3670   -1.1450   -0.7900 C   0  0  0  0  0  0  0  0  0  0  0  0
   -1.2460   -6.2030    7.0490 C   0  0  0  0  0  0  0  0  0  0  0  0
   -0.3630    1.1370    0.8430 C   0  0  0  0  0  0  0  0  0  0  0  0
    0.1190    0.2150   -1.4400 C   0  0  0  0  0  0  0  0  0  0  0  0
    0.8360   -6.0040    5.6850 C   0  0  0  0  0  0  0  0  0  0  0  0
   -0.3000   -6.9280    6.1020 C   0  0  0  0  0  0  0  0  0  0  0  0
    0.3930    1.3540   -0.4640 C   0  0  0  0  0  0  0  0  0  0  0  0
   -0.2020   -2.2940    2.9890 H   0  0  0  0  0  0  0  0  0  0  0  0
   -3.7880   -2.5600    5.3280 H   0  0  0  0  0  0  0  0  0  0  0  0
   -5.1360   -2.5710    3.2540 H   0  0  0  0  0  0  0  0  0  0  0  0
   -2.3480   -5.0830    5.5940 H   0  0  0  0  0  0  0  0  0  0  0  0
   -2.3260   -4.3620    7.2210 H   0  0  0  0  0  0  0  0  0  0  0  0
    1.1700   -4.0300    4.9300 H   0  0  0  0  0  0  0  0  0  0  0  0
   -0.2090   -4.8810    4.1930 H   0  0  0  0  0  0  0  0  0  0  0  0
    0.9550   -0.3320    1.6820 H   0  0  0  0  0  0  0  0  0  0  0  0
   -0.7120   -0.3970    2.3010 H   0  0  0  0  0  0  0  0  0  0  0  0
    0.0880   -1.9300   -1.4930 H   0  0  0  0  0  0  0  0  0  0  0  0
    1.4260   -1.2340   -0.5470 H   0  0  0  0  0  0  0  0  0  0  0  0
   -2.1100   -6.8400    7.2400 H   0  0  0  0  0  0  0  0  0  0  0  0
   -0.7250   -6.0070    7.9860 H   0  0  0  0  0  0  0  0  0  0  0  0
   -0.0410    1.8840    1.5680 H   0  0  0  0  0  0  0  0  0  0  0  0
   -1.4310    1.2480    0.6580 H   0  0  0  0  0  0  0  0  0  0  0  0
   -0.9200    0.2690   -1.7660 H   0  0  0  0  0  0  0  0  0  0  0  0
    0.7760    0.3210   -2.3030 H   0  0  0  0  0  0  0  0  0  0  0  0
    1.4600   -5.7980    6.5550 H   0  0  0  0  0  0  0  0  0  0  0  0
    1.4320   -6.5010    4.9200 H   0  0  0  0  0  0  0  0  0  0  0  0
   -0.8500   -7.2450    5.2160 H   0  0  0  0  0  0  0  0  0  0  0  0
    0.1130   -7.8020    6.6050 H   0  0  0  0  0  0  0  0  0  0  0  0
    1.4620    1.3980   -0.2560 H   0  0  0  0  0  0  0  0  0  0  0  0
    0.0710    2.2940   -0.9120 H   0  0  0  0  0  0  0  0  0  0  0  0
  1  4  1  0  0  0  0
  1  5  1  0  0  0  0
  1  8  2  0  0  0  0
  1  9  2  0  0  0  0
  2  3  1  0  0  0  0
  2  6  2  0  0  0  0
  2 10  1  0  0  0  0
  3  7  1  0  0  0  0
  3 11  2  0  0  0  0
  4  6  1  0  0  0  0
  4 12  2  0  0  0  0
  5 15  1  0  0  0  0
  5 16  1  0  0  0  0
  6 25  1  0  0  0  0
  7 17  1  0  0  0  0
  7 18  1  0  0  0  0
 10 13  2  0  0  0  0
 10 14  1  0  0  0  0
 12 13  1  0  0  0  0
 12 26  1  0  0  0  0
 13 27  1  0  0  0  0
 15 19  1  0  0  0  0
 15 28  1  0  0  0  0
 15 29  1  0  0  0  0
 16 22  1  0  0  0  0
 16 30  1  0  0  0  0
 16 31  1  0  0  0  0
 17 20  1  0  0  0  0
 17 32  1  0  0  0  0
 17 33  1  0  0  0  0
 18 21  1  0  0  0  0
 18 34  1  0  0  0  0
 18 35  1  0  0  0  0
 19 23  1  0  0  0  0
 19 36  1  0  0  0  0
 19 37  1  0  0  0  0
 20 24  1  0  0  0  0
 20 38  1  0  0  0  0
 20 39  1  0  0  0  0
 21 24  1  0  0  0  0
 21 40  1  0  0  0  0
 21 41  1  0  0  0  0
 22 23  1  0  0  0  0
 22 42  1  0  0  0  0
 22 43  1  0  0  0  0
 23 44  1  0  0  0  0
 23 45  1  0  0  0  0
 24 46  1  0  0  0  0
 24 47  1  0  0  0  0
M  END
>  <$CLUSTER>
62

>  <INDEX>
42505

$$$$
Chembridge 5347669
  MOE2020           3D

 58 60  0  0  0  0  0  0  0  0999 V2000
   -1.2820   -0.6230   -1.7020 C   0  0  0  0  0  0  0  0  0  0  0  0
    2.8150   -4.2300   -3.5740 C   0  0  0  0  0  0  0  0  0  0  0  0
   -1.0910    0.0020   -0.4640 N   0  0  0  0  0  0  0  0  0  0  0  0
    2.4300   -5.4930   -3.9670 N   0  0  0  0  0  0  0  0  0  0  0  0
    1.0680   -5.9200   -4.1100 C   0  0  0  0  0  0  0  0  0  0  0  0
    0.1290   -0.0680    0.2700 C   0  0  0  0  0  0  0  0  0  0  0  0
    1.7390   -3.3190   -3.0980 C   0  0  0  0  0  0  0  0  0  0  0  0
   -0.2010   -1.5670   -2.1790 C   0  0  0  0  0  0  0  0  0  0  0  0
   -2.2860   -0.4560   -2.4010 O   0  0  0  0  0  0  0  0  0  0  0  0
    3.9810   -3.8490   -3.5890 O   0  0  0  0  0  0  0  0  0  0  0  0
    0.2030   -0.6670    1.5450 C   0  0  0  0  0  0  0  0  0  0  0  0
    0.5080   -6.9440   -3.3180 C   0  0  0  0  0  0  0  0  0  0  0  0
   -0.5580   -2.5690   -3.0560 C   0  0  0  0  0  0  0  0  0  0  0  0
    0.4180   -3.4540   -3.5190 C   0  0  0  0  0  0  0  0  0  0  0  0
    2.0870   -2.2960   -2.2170 C   0  0  0  0  0  0  0  0  0  0  0  0
    1.1140   -1.4090   -1.7500 C   0  0  0  0  0  0  0  0  0  0  0  0
   -2.1710    0.8220    0.1020 C   0  0  0  0  0  0  0  0  0  0  0  0
    3.4600   -6.5030   -4.3290 C   0  0  0  0  0  0  0  0  0  0  0  0
    1.2790    0.5080   -0.2960 C   0  0  0  0  0  0  0  0  0  0  0  0
    0.2820   -5.2860   -5.0870 C   0  0  0  0  0  0  0  0  0  0  0  0
   -0.9640   -1.3510    2.2030 C   0  0  0  0  0  0  0  0  0  0  0  0
    1.2600   -7.6400   -2.2170 C   0  0  0  0  0  0  0  0  0  0  0  0
    1.4260   -0.6360    2.2360 C   0  0  0  0  0  0  0  0  0  0  0  0
   -0.8220   -7.3320   -3.5580 C   0  0  0  0  0  0  0  0  0  0  0  0
    3.9270   -6.3310   -5.7690 C   0  0  0  0  0  0  0  0  0  0  0  0
   -2.1620    2.2330   -0.4730 C   0  0  0  0  0  0  0  0  0  0  0  0
    2.4870    0.5120    0.3990 C   0  0  0  0  0  0  0  0  0  0  0  0
   -1.0410   -5.6740   -5.2960 C   0  0  0  0  0  0  0  0  0  0  0  0
    2.5590   -0.0540    1.6670 C   0  0  0  0  0  0  0  0  0  0  0  0
   -1.5900   -6.7010   -4.5360 C   0  0  0  0  0  0  0  0  0  0  0  0
   -1.5830   -2.6690   -3.3820 H   0  0  0  0  0  0  0  0  0  0  0  0
    0.1480   -4.2440   -4.2040 H   0  0  0  0  0  0  0  0  0  0  0  0
    3.1120   -2.1890   -1.8950 H   0  0  0  0  0  0  0  0  0  0  0  0
    1.3770   -0.6140   -1.0680 H   0  0  0  0  0  0  0  0  0  0  0  0
   -2.0430    0.8790    1.1830 H   0  0  0  0  0  0  0  0  0  0  0  0
   -3.1280    0.3530   -0.1260 H   0  0  0  0  0  0  0  0  0  0  0  0
    3.0360   -7.5000   -4.2110 H   0  0  0  0  0  0  0  0  0  0  0  0
    4.3160   -6.3910   -3.6630 H   0  0  0  0  0  0  0  0  0  0  0  0
    1.2260    0.9520   -1.2790 H   0  0  0  0  0  0  0  0  0  0  0  0
    0.7070   -4.4910   -5.6820 H   0  0  0  0  0  0  0  0  0  0  0  0
   -1.8350   -1.2930    1.5500 H   0  0  0  0  0  0  0  0  0  0  0  0
   -1.1870   -0.8590    3.1500 H   0  0  0  0  0  0  0  0  0  0  0  0
   -0.7160   -2.3970    2.3860 H   0  0  0  0  0  0  0  0  0  0  0  0
    2.2690   -7.2330   -2.1530 H   0  0  0  0  0  0  0  0  0  0  0  0
    1.3110   -8.7080   -2.4310 H   0  0  0  0  0  0  0  0  0  0  0  0
    0.7440   -7.4830   -1.2690 H   0  0  0  0  0  0  0  0  0  0  0  0
    1.4900   -1.0700    3.2230 H   0  0  0  0  0  0  0  0  0  0  0  0
   -1.2560   -8.1310   -2.9760 H   0  0  0  0  0  0  0  0  0  0  0  0
    3.0770   -6.4420   -6.4420 H   0  0  0  0  0  0  0  0  0  0  0  0
    4.6750   -7.0890   -6.0010 H   0  0  0  0  0  0  0  0  0  0  0  0
    4.3630   -5.3400   -5.8940 H   0  0  0  0  0  0  0  0  0  0  0  0
   -1.2080    2.7100   -0.2500 H   0  0  0  0  0  0  0  0  0  0  0  0
   -2.9710    2.8120   -0.0270 H   0  0  0  0  0  0  0  0  0  0  0  0
   -2.3010    2.1860   -1.5530 H   0  0  0  0  0  0  0  0  0  0  0  0
    3.3660    0.9540   -0.0470 H   0  0  0  0  0  0  0  0  0  0  0  0
   -1.6380   -5.1780   -6.0470 H   0  0  0  0  0  0  0  0  0  0  0  0
    3.4920   -0.0430    2.2110 H   0  0  0  0  0  0  0  0  0  0  0  0
   -2.6110   -7.0100   -4.7030 H   0  0  0  0  0  0  0  0  0  0  0  0
  1  3  1  0  0  0  0
  1  8  1  0  0  0  0
  1  9  2  0  0  0  0
  2  4  1  0  0  0  0
  2  7  1  0  0  0  0
  2 10  2  0  0  0  0
  3  6  1  0  0  0  0
  3 17  1  0  0  0  0
  4  5  1  0  0  0  0
  4 18  1  0  0  0  0
  5 12  2  0  0  0  0
  5 20  1  0  0  0  0
  6 11  2  0  0  0  0
  6 19  1  0  0  0  0
  7 14  2  0  0  0  0
  7 15  1  0  0  0  0
  8 13  2  0  0  0  0
  8 16  1  0  0  0  0
 11 21  1  0  0  0  0
 11 23  1  0  0  0  0
 12 22  1  0  0  0  0
 12 24  1  0  0  0  0
 13 14  1  0  0  0  0
 13 31  1  0  0  0  0
 14 32  1  0  0  0  0
 15 16  2  0  0  0  0
 15 33  1  0  0  0  0
 16 34  1  0  0  0  0
 17 26  1  0  0  0  0
 17 35  1  0  0  0  0
 17 36  1  0  0  0  0
 18 25  1  0  0  0  0
 18 37  1  0  0  0  0
 18 38  1  0  0  0  0
 19 27  2  0  0  0  0
 19 39  1  0  0  0  0
 20 28  2  0  0  0  0
 20 40  1  0  0  0  0
 21 41  1  0  0  0  0
 21 42  1  0  0  0  0
 21 43  1  0  0  0  0
 22 44  1  0  0  0  0
 22 45  1  0  0  0  0
 22 46  1  0  0  0  0
 23 29  2  0  0  0  0
 23 47  1  0  0  0  0
 24 30  2  0  0  0  0
 24 48  1  0  0  0  0
 25 49  1  0  0  0  0
 25 50  1  0  0  0  0
 25 51  1  0  0  0  0
 26 52  1  0  0  0  0
 26 53  1  0  0  0  0
 26 54  1  0  0  0  0
 27 29  1  0  0  0  0
 27 55  1  0  0  0  0
 28 30  1  0  0  0  0
 28 56  1  0  0  0  0
 29 57  1  0  0  0  0
 30 58  1  0  0  0  0
M  END
>  <$CLUSTER>
63

>  <INDEX>
42597

$$$$
Chem T&I AMSACS-04541
  MOE2020           3D

 42 43  0  0  0  0  0  0  0  0999 V2000
    0.6570   -0.1680   -0.8750 S   0  0  0  0  0  0  0  0  0  0  0  0
   -0.9310    1.6720    2.1080 C   0  0  0  0  0  0  0  0  0  0  0  0
   -0.0930    3.2810    3.4690 N   0  0  0  0  0  0  0  0  0  0  0  0
   -0.1260   -0.1390    0.6530 N   0  0  0  0  0  0  0  0  0  0  0  0
   -0.8660    2.4160    4.1410 N   0  0  0  0  0  0  0  0  0  0  0  0
   -0.1230    2.8210    2.2120 C   0  0  0  0  0  0  0  0  0  0  0  0
   -1.3890    1.4260    3.3660 C   0  0  0  0  0  0  0  0  0  0  0  0
   -1.2220    0.8520    0.8630 C   0  0  0  0  0  0  0  0  0  0  0  0
   -0.6360   -0.8210   -1.9110 C   0  0  0  0  0  0  0  0  0  0  0  0
    1.7290   -1.1450   -0.8480 O   0  0  0  0  0  0  0  0  0  0  0  0
    0.9180    1.1920   -1.3050 O   0  0  0  0  0  0  0  0  0  0  0  0
   -1.5150    0.0600   -2.5290 C   0  0  0  0  0  0  0  0  0  0  0  0
   -0.7320   -2.1950   -2.0860 C   0  0  0  0  0  0  0  0  0  0  0  0
   -1.7360   -2.7010   -2.9120 C   0  0  0  0  0  0  0  0  0  0  0  0
   -2.5160   -0.4540   -3.3530 C   0  0  0  0  0  0  0  0  0  0  0  0
   -2.6270   -1.8320   -3.5440 C   0  0  0  0  0  0  0  0  0  0  0  0
   -1.0690    2.5950    5.5700 C   0  0  0  0  0  0  0  0  0  0  0  0
   -0.3890   -1.4420    1.3160 C   0  0  0  0  0  0  0  0  0  0  0  0
    0.6290    3.5250    1.1450 C   0  0  0  0  0  0  0  0  0  0  0  0
   -3.7040   -2.3720   -4.4280 C   0  0  0  0  0  0  0  0  0  0  0  0
   -2.1710    3.5950    5.8730 C   0  0  0  0  0  0  0  0  0  0  0  0
   -2.0310    0.6170    3.6820 H   0  0  0  0  0  0  0  0  0  0  0  0
   -1.2850    1.5130   -0.0010 H   0  0  0  0  0  0  0  0  0  0  0  0
   -2.1690    0.3260    0.9870 H   0  0  0  0  0  0  0  0  0  0  0  0
   -1.4250    1.1250   -2.3740 H   0  0  0  0  0  0  0  0  0  0  0  0
   -0.0410   -2.8610   -1.5910 H   0  0  0  0  0  0  0  0  0  0  0  0
   -1.8240   -3.7670   -3.0630 H   0  0  0  0  0  0  0  0  0  0  0  0
   -3.2070    0.2160   -3.8440 H   0  0  0  0  0  0  0  0  0  0  0  0
   -0.1400    2.9520    6.0140 H   0  0  0  0  0  0  0  0  0  0  0  0
   -1.3370    1.6340    6.0090 H   0  0  0  0  0  0  0  0  0  0  0  0
    0.4430   -2.1200    1.1270 H   0  0  0  0  0  0  0  0  0  0  0  0
   -1.3070   -1.8740    0.9180 H   0  0  0  0  0  0  0  0  0  0  0  0
   -0.4960   -1.2880    2.3900 H   0  0  0  0  0  0  0  0  0  0  0  0
    0.4850    3.0070    0.1970 H   0  0  0  0  0  0  0  0  0  0  0  0
    1.6900    3.5370    1.3950 H   0  0  0  0  0  0  0  0  0  0  0  0
    0.2650    4.5490    1.0590 H   0  0  0  0  0  0  0  0  0  0  0  0
   -3.6380   -3.4600   -4.4580 H   0  0  0  0  0  0  0  0  0  0  0  0
   -3.5820   -1.9720   -5.4350 H   0  0  0  0  0  0  0  0  0  0  0  0
   -4.6780   -2.0780   -4.0360 H   0  0  0  0  0  0  0  0  0  0  0  0
   -1.9150    4.5610    5.4380 H   0  0  0  0  0  0  0  0  0  0  0  0
   -2.2800    3.7000    6.9520 H   0  0  0  0  0  0  0  0  0  0  0  0
   -3.1100    3.2420    5.4460 H   0  0  0  0  0  0  0  0  0  0  0  0
  1  4  1  0  0  0  0
  1  9  1  0  0  0  0
  1 10  2  0  0  0  0
  1 11  2  0  0  0  0
  2  6  1  0  0  0  0
  2  7  2  0  0  0  0
  2  8  1  0  0  0  0
  3  5  1  0  0  0  0
  3  6  2  0  0  0  0
  4  8  1  0  0  0  0
  4 18  1  0  0  0  0
  5  7  1  0  0  0  0
  5 17  1  0  0  0  0
  6 19  1  0  0  0  0
  7 22  1  0  0  0  0
  8 23  1  0  0  0  0
  8 24  1  0  0  0  0
  9 12  1  0  0  0  0
  9 13  2  0  0  0  0
 12 15  2  0  0  0  0
 12 25  1  0  0  0  0
 13 14  1  0  0  0  0
 13 26  1  0  0  0  0
 14 16  2  0  0  0  0
 14 27  1  0  0  0  0
 15 16  1  0  0  0  0
 15 28  1  0  0  0  0
 16 20  1  0  0  0  0
 17 21  1  0  0  0  0
 17 29  1  0  0  0  0
 17 30  1  0  0  0  0
 18 31  1  0  0  0  0
 18 32  1  0  0  0  0
 18 33  1  0  0  0  0
 19 34  1  0  0  0  0
 19 35  1  0  0  0  0
 19 36  1  0  0  0  0
 20 37  1  0  0  0  0
 20 38  1  0  0  0  0
 20 39  1  0  0  0  0
 21 40  1  0  0  0  0
 21 41  1  0  0  0  0
 21 42  1  0  0  0  0
M  END
>  <$CLUSTER>
64

>  <INDEX>
514245

$$$$
Chembridge 5367995
  MOE2020           3D

 46 46  0  0  0  0  0  0  0  0999 V2000
   -0.6140    2.1280   -0.1310 C   0  0  0  0  0  0  0  0  0  0  0  0
   -0.7060    0.6330   -0.0920 C   0  0  0  0  0  0  0  0  0  0  0  0
   -0.1220    2.6030   -1.5040 C   0  0  0  0  0  0  0  0  0  0  0  0
   -1.7540    0.0070   -0.1730 O   0  0  0  0  0  0  0  0  0  0  0  0
   -0.8210    3.0710   -2.3830 O   0  0  0  0  0  0  0  0  0  0  0  0
    0.5420    0.1030    0.0460 O   0  0  0  0  0  0  0  0  0  0  0  0
    1.2110    2.3980   -1.6200 O   0  0  0  0  0  0  0  0  0  0  0  0
   -5.6990    3.0420    4.9840 C   0  0  0  0  0  0  0  0  0  0  0  0
   -5.3610    3.3840    3.6690 C   0  0  0  0  0  0  0  0  0  0  0  0
   -6.8830    3.5090    5.5580 C   0  0  0  0  0  0  0  0  0  0  0  0
   -1.9580    2.7900    0.2030 C   0  0  0  0  0  0  0  0  0  0  0  0
   -4.1830    2.8670    3.2220 O   0  0  0  0  0  0  0  0  0  0  0  0
   -7.4090    4.6680    3.5100 C   0  0  0  0  0  0  0  0  0  0  0  0
   -6.2240    4.2010    2.9350 C   0  0  0  0  0  0  0  0  0  0  0  0
   -7.7380    4.3240    4.8200 C   0  0  0  0  0  0  0  0  0  0  0  0
    1.8250    2.7840   -2.8430 C   0  0  0  0  0  0  0  0  0  0  0  0
    0.6050   -1.3310    0.0970 C   0  0  0  0  0  0  0  0  0  0  0  0
   -3.7750    3.1730    1.8960 C   0  0  0  0  0  0  0  0  0  0  0  0
   -7.2330    3.1360    6.9610 C   0  0  0  0  0  0  0  0  0  0  0  0
   -2.4630    2.5110    1.6080 C   0  0  0  0  0  0  0  0  0  0  0  0
    2.0560   -1.7380    0.2540 C   0  0  0  0  0  0  0  0  0  0  0  0
    3.3080    2.4840   -2.7700 C   0  0  0  0  0  0  0  0  0  0  0  0
    0.1060    2.4280    0.6300 H   0  0  0  0  0  0  0  0  0  0  0  0
   -5.0380    2.4110    5.5600 H   0  0  0  0  0  0  0  0  0  0  0  0
   -2.7020    2.4260   -0.5050 H   0  0  0  0  0  0  0  0  0  0  0  0
   -1.8450    3.8680    0.0890 H   0  0  0  0  0  0  0  0  0  0  0  0
   -8.0730    5.2980    2.9370 H   0  0  0  0  0  0  0  0  0  0  0  0
   -5.9750    4.4730    1.9200 H   0  0  0  0  0  0  0  0  0  0  0  0
   -8.6540    4.6890    5.2620 H   0  0  0  0  0  0  0  0  0  0  0  0
    1.6760    3.8520   -3.0050 H   0  0  0  0  0  0  0  0  0  0  0  0
    1.3800    2.2260   -3.6670 H   0  0  0  0  0  0  0  0  0  0  0  0
    0.2020   -1.7510   -0.8250 H   0  0  0  0  0  0  0  0  0  0  0  0
    0.0260   -1.6950    0.9460 H   0  0  0  0  0  0  0  0  0  0  0  0
   -3.6680    4.2520    1.7900 H   0  0  0  0  0  0  0  0  0  0  0  0
   -4.5260    2.8120    1.1930 H   0  0  0  0  0  0  0  0  0  0  0  0
   -6.4510    2.4990    7.3740 H   0  0  0  0  0  0  0  0  0  0  0  0
   -8.1810    2.5980    6.9680 H   0  0  0  0  0  0  0  0  0  0  0  0
   -7.3230    4.0390    7.5650 H   0  0  0  0  0  0  0  0  0  0  0  0
   -1.7250    2.8760    2.3220 H   0  0  0  0  0  0  0  0  0  0  0  0
   -2.5830    1.4340    1.7270 H   0  0  0  0  0  0  0  0  0  0  0  0
    2.6300   -1.3710   -0.5970 H   0  0  0  0  0  0  0  0  0  0  0  0
    2.1260   -2.8250    0.2980 H   0  0  0  0  0  0  0  0  0  0  0  0
    2.4560   -1.3110    1.1740 H   0  0  0  0  0  0  0  0  0  0  0  0
    3.7520    3.0430   -1.9460 H   0  0  0  0  0  0  0  0  0  0  0  0
    3.7840    2.7770   -3.7060 H   0  0  0  0  0  0  0  0  0  0  0  0
    3.4550    1.4160   -2.6060 H   0  0  0  0  0  0  0  0  0  0  0  0
  1  2  1  0  0  0  0
  1  3  1  0  0  0  0
  1 11  1  0  0  0  0
  1 23  1  0  0  0  0
  2  4  2  0  0  0  0
  2  6  1  0  0  0  0
  3  5  2  0  0  0  0
  3  7  1  0  0  0  0
  6 17  1  0  0  0  0
  7 16  1  0  0  0  0
  8  9  2  0  0  0  0
  8 10  1  0  0  0  0
  8 24  1  0  0  0  0
  9 12  1  0  0  0  0
  9 14  1  0  0  0  0
 10 15  2  0  0  0  0
 10 19  1  0  0  0  0
 11 20  1  0  0  0  0
 11 25  1  0  0  0  0
 11 26  1  0  0  0  0
 12 18  1  0  0  0  0
 13 14  2  0  0  0  0
 13 15  1  0  0  0  0
 13 27  1  0  0  0  0
 14 28  1  0  0  0  0
 15 29  1  0  0  0  0
 16 22  1  0  0  0  0
 16 30  1  0  0  0  0
 16 31  1  0  0  0  0
 17 21  1  0  0  0  0
 17 32  1  0  0  0  0
 17 33  1  0  0  0  0
 18 20  1  0  0  0  0
 18 34  1  0  0  0  0
 18 35  1  0  0  0  0
 19 36  1  0  0  0  0
 19 37  1  0  0  0  0
 19 38  1  0  0  0  0
 20 39  1  0  0  0  0
 20 40  1  0  0  0  0
 21 41  1  0  0  0  0
 21 42  1  0  0  0  0
 21 43  1  0  0  0  0
 22 44  1  0  0  0  0
 22 45  1  0  0  0  0
 22 46  1  0  0  0  0
M  END
>  <$CLUSTER>
65

>  <INDEX>
43512

$$$$
Chembridge 5418691
  MOE2020           3D

 41 43  0  0  1  0  0  0  0  0999 V2000
    0.3620    0.6510   -0.0820 N   0  3  0  0  0  0  0  0  0  0  0  0
    1.2890   -6.5760   -3.1300 C   0  0  0  0  0  0  0  0  0  0  0  0
   -0.2920   -0.6470    0.0810 C   0  0  0  0  0  0  0  0  0  0  0  0
    0.8840   -4.8560   -0.8590 N   0  3  3  0  0  0  0  0  0  0  0  0
    2.1830   -6.5960   -2.1260 C   0  0  0  0  0  0  0  0  0  0  0  0
    1.6040    0.6970   -0.1070 O   0  5  0  0  0  0  0  0  0  0  0  0
   -0.3660    1.6520   -0.1880 O   0  0  0  0  0  0  0  0  0  0  0  0
    1.5330   -7.2630   -4.4400 C   0  0  0  0  0  0  0  0  0  0  0  0
    0.4780   -1.7400    0.1970 C   0  0  0  0  0  0  0  0  0  0  0  0
   -0.0240   -5.8440   -2.9820 C   0  0  0  0  0  0  0  0  0  0  0  0
    1.9940   -5.8950   -0.8160 C   0  0  0  0  0  0  0  0  0  0  0  0
   -0.1920   -3.0020    0.3600 C   0  0  0  0  0  0  0  0  0  0  0  0
    0.6250   -4.2680    0.4650 C   0  0  0  0  0  0  0  0  0  0  0  0
    0.5640   -8.0790   -4.9960 C   0  0  0  0  0  0  0  0  0  0  0  0
    2.7590   -7.0800   -5.0880 C   0  0  0  0  0  0  0  0  0  0  0  0
   -0.3340   -5.4430   -1.5430 C   0  0  0  0  0  0  0  0  0  0  0  0
    2.0220   -8.5360   -6.8690 C   0  0  0  0  0  0  0  0  0  0  0  0
    2.9980   -7.7180   -6.3060 C   0  0  0  0  0  0  0  0  0  0  0  0
    0.8060   -8.7170   -6.2140 C   0  0  0  0  0  0  0  0  0  0  0  0
    2.3300   -9.1080   -8.0330 F   0  0  0  0  0  0  0  0  0  0  0  0
   -1.7850   -0.6130    0.1000 C   0  0  0  0  0  0  0  0  0  0  0  0
   -2.3490   -1.8850    0.2530 C   0  0  0  0  0  0  0  0  0  0  0  0
   -1.5960   -3.0520    0.3780 C   0  0  0  0  0  0  0  0  0  0  0  0
    1.1780   -4.0680   -1.4190 H   0  0  0  0  0  0  0  0  0  0  0  0
    3.0960   -7.1530   -2.2740 H   0  0  0  0  0  0  0  0  0  0  0  0
    1.5560   -1.6750    0.1690 H   0  0  0  0  0  0  0  0  0  0  0  0
   -0.8240   -6.4920   -3.3400 H   0  0  0  0  0  0  0  0  0  0  0  0
    0.0130   -4.9420   -3.5920 H   0  0  0  0  0  0  0  0  0  0  0  0
    1.7480   -6.6370   -0.0560 H   0  0  0  0  0  0  0  0  0  0  0  0
    2.9270   -5.3980   -0.5490 H   0  0  0  0  0  0  0  0  0  0  0  0
    1.5770   -4.0360    0.9420 H   0  0  0  0  0  0  0  0  0  0  0  0
    0.0810   -4.9910    1.0730 H   0  0  0  0  0  0  0  0  0  0  0  0
   -0.3780   -8.2220   -4.4880 H   0  0  0  0  0  0  0  0  0  0  0  0
    3.5170   -6.4480   -4.6480 H   0  0  0  0  0  0  0  0  0  0  0  0
   -1.1320   -4.7000   -1.5460 H   0  0  0  0  0  0  0  0  0  0  0  0
   -0.6600   -6.3250   -0.9910 H   0  0  0  0  0  0  0  0  0  0  0  0
    3.9410   -7.5770   -6.8130 H   0  0  0  0  0  0  0  0  0  0  0  0
    0.0490   -9.3520   -6.6490 H   0  0  0  0  0  0  0  0  0  0  0  0
   -2.3650    0.2930    0.0060 H   0  0  0  0  0  0  0  0  0  0  0  0
   -3.4260   -1.9670    0.2750 H   0  0  0  0  0  0  0  0  0  0  0  0
   -2.0960   -4.0030    0.4900 H   0  0  0  0  0  0  0  0  0  0  0  0
  1  3  1  0  0  0  0
  1  6  1  0  0  0  0
  1  7  2  0  0  0  0
  2  5  2  0  0  0  0
  2  8  1  0  0  0  0
  2 10  1  0  0  0  0
  3  9  2  0  0  0  0
  3 21  1  0  0  0  0
  4 11  1  0  0  0  0
  4 13  1  0  0  0  0
  4 16  1  0  0  0  0
  4 24  1  0  0  0  0
  5 11  1  0  0  0  0
  5 25  1  0  0  0  0
  8 14  1  0  0  0  0
  8 15  2  0  0  0  0
  9 12  1  0  0  0  0
  9 26  1  0  0  0  0
 10 16  1  0  0  0  0
 10 27  1  0  0  0  0
 10 28  1  0  0  0  0
 11 29  1  0  0  0  0
 11 30  1  0  0  0  0
 12 13  1  0  0  0  0
 12 23  2  0  0  0  0
 13 31  1  0  0  0  0
 13 32  1  0  0  0  0
 14 19  2  0  0  0  0
 14 33  1  0  0  0  0
 15 18  1  0  0  0  0
 15 34  1  0  0  0  0
 16 35  1  0  0  0  0
 16 36  1  0  0  0  0
 17 18  2  0  0  0  0
 17 19  1  0  0  0  0
 17 20  1  0  0  0  0
 18 37  1  0  0  0  0
 19 38  1  0  0  0  0
 21 22  2  0  0  0  0
 21 39  1  0  0  0  0
 22 23  1  0  0  0  0
 22 40  1  0  0  0  0
 23 41  1  0  0  0  0
M  CHG  1   1   1
M  CHG  1   4   1
M  CHG  1   6  -1
M  END
>  <$CLUSTER>
66

>  <INDEX>
44459

$$$$
Chembridge 5456601
  MOE2020           3D

 43 44  0  0  0  0  0  0  0  0999 V2000
   -3.8100    0.5710    0.4780 N   0  3  0  0  0  0  0  0  0  0  0  0
    0.2770   -0.3260   -0.3320 N   0  3  0  0  0  0  0  0  0  0  0  0
   -2.0150    0.0300   -1.1540 C   0  0  0  0  0  0  0  0  0  0  0  0
   -1.4930    0.3030    1.3020 C   0  0  0  0  0  0  0  0  0  0  0  0
   -3.3460    0.7690   -0.9460 C   0  0  0  0  0  0  0  0  0  0  0  0
   -2.8090    1.0350    1.5080 C   0  0  0  0  0  0  0  0  0  0  0  0
   -0.9740    0.4880   -0.1280 C   0  0  0  0  0  0  0  0  0  0  0  0
    4.9030   -2.2430   -0.7950 C   0  0  0  0  0  0  0  0  0  0  0  0
    1.5050    0.1790    0.3600 C   0  0  0  0  0  0  0  0  0  0  0  0
    2.6990   -0.6750   -0.0480 C   0  0  0  0  0  0  0  0  0  0  0  0
    5.9650   -2.9310   -1.2160 F   0  0  0  0  0  0  0  0  0  0  0  0
    4.1400   -2.5970    0.3150 C   0  0  0  0  0  0  0  0  0  0  0  0
    4.5700   -1.1100   -1.5350 C   0  0  0  0  0  0  0  0  0  0  0  0
    3.0450   -1.8170    0.6890 C   0  0  0  0  0  0  0  0  0  0  0  0
    3.4760   -0.3280   -1.1640 C   0  0  0  0  0  0  0  0  0  0  0  0
   -5.1610    1.2020    0.7040 C   0  0  0  0  0  0  0  0  0  0  0  0
   -6.2890    0.4520   -0.0210 C   0  0  0  0  0  0  0  0  0  0  0  0
   -7.6640    1.0080    0.3220 C   0  0  0  0  0  0  0  0  0  0  0  0
   -3.8970   -0.4270    0.6070 H   0  0  0  0  0  0  0  0  0  0  0  0
    0.4700   -0.3540   -1.3230 H   0  0  0  0  0  0  0  0  0  0  0  0
    0.0960   -1.2620    0.0030 H   0  0  0  0  0  0  0  0  0  0  0  0
   -1.6440    0.2380   -2.1570 H   0  0  0  0  0  0  0  0  0  0  0  0
   -2.1800   -1.0420   -1.0420 H   0  0  0  0  0  0  0  0  0  0  0  0
   -1.6440   -0.7600    1.4910 H   0  0  0  0  0  0  0  0  0  0  0  0
   -0.7550    0.6950    2.0020 H   0  0  0  0  0  0  0  0  0  0  0  0
   -3.2060    1.8330   -1.1390 H   0  0  0  0  0  0  0  0  0  0  0  0
   -4.0940    0.3710   -1.6310 H   0  0  0  0  0  0  0  0  0  0  0  0
   -3.1900    0.8220    2.5070 H   0  0  0  0  0  0  0  0  0  0  0  0
   -2.6490    2.1080    1.4010 H   0  0  0  0  0  0  0  0  0  0  0  0
   -0.7660    1.5490   -0.2690 H   0  0  0  0  0  0  0  0  0  0  0  0
    1.3660    0.1190    1.4390 H   0  0  0  0  0  0  0  0  0  0  0  0
    1.6840    1.2160    0.0740 H   0  0  0  0  0  0  0  0  0  0  0  0
    4.3960   -3.4760    0.8870 H   0  0  0  0  0  0  0  0  0  0  0  0
    5.1600   -0.8370   -2.3970 H   0  0  0  0  0  0  0  0  0  0  0  0
    2.4590   -2.0950    1.5530 H   0  0  0  0  0  0  0  0  0  0  0  0
    3.2250    0.5510   -1.7400 H   0  0  0  0  0  0  0  0  0  0  0  0
   -5.1330    2.2290    0.3390 H   0  0  0  0  0  0  0  0  0  0  0  0
   -5.3720    1.2020    1.7730 H   0  0  0  0  0  0  0  0  0  0  0  0
   -6.2540   -0.5990    0.2670 H   0  0  0  0  0  0  0  0  0  0  0  0
   -6.1340    0.5390   -1.0960 H   0  0  0  0  0  0  0  0  0  0  0  0
   -7.8310    0.9260    1.3960 H   0  0  0  0  0  0  0  0  0  0  0  0
   -8.4280    0.4400   -0.2090 H   0  0  0  0  0  0  0  0  0  0  0  0
   -7.7170    2.0550    0.0250 H   0  0  0  0  0  0  0  0  0  0  0  0
  1  5  1  0  0  0  0
  1  6  1  0  0  0  0
  1 16  1  0  0  0  0
  1 19  1  0  0  0  0
  2  7  1  0  0  0  0
  2  9  1  0  0  0  0
  2 20  1  0  0  0  0
  2 21  1  0  0  0  0
  3  5  1  0  0  0  0
  3  7  1  0  0  0  0
  3 22  1  0  0  0  0
  3 23  1  0  0  0  0
  4  6  1  0  0  0  0
  4  7  1  0  0  0  0
  4 24  1  0  0  0  0
  4 25  1  0  0  0  0
  5 26  1  0  0  0  0
  5 27  1  0  0  0  0
  6 28  1  0  0  0  0
  6 29  1  0  0  0  0
  7 30  1  0  0  0  0
  8 11  1  0  0  0  0
  8 12  2  0  0  0  0
  8 13  1  0  0  0  0
  9 10  1  0  0  0  0
  9 31  1  0  0  0  0
  9 32  1  0  0  0  0
 10 14  2  0  0  0  0
 10 15  1  0  0  0  0
 12 14  1  0  0  0  0
 12 33  1  0  0  0  0
 13 15  2  0  0  0  0
 13 34  1  0  0  0  0
 14 35  1  0  0  0  0
 15 36  1  0  0  0  0
 16 17  1  0  0  0  0
 16 37  1  0  0  0  0
 16 38  1  0  0  0  0
 17 18  1  0  0  0  0
 17 39  1  0  0  0  0
 17 40  1  0  0  0  0
 18 41  1  0  0  0  0
 18 42  1  0  0  0  0
 18 43  1  0  0  0  0
M  CHG  1   1   1
M  CHG  1   2   1
M  END
>  <$CLUSTER>
67

>  <INDEX>
45948

$$$$
Specs AG-690/13704539
  MOE2020           3D

 53 56  0  0  0  0  0  0  0  0999 V2000
   -1.9340    1.1330   -1.7490 N   0  3  0  0  0  0  0  0  0  0  0  0
    0.8510   -0.2950    1.1030 N   0  3  0  0  0  0  0  0  0  0  0  0
   -0.8690    0.2800   -1.1590 C   0  0  0  0  0  0  0  0  0  0  0  0
   -1.4110   -0.3960    0.0960 C   0  0  0  0  0  0  0  0  0  0  0  0
    0.3480    1.1470   -0.8490 C   0  0  0  0  0  0  0  0  0  0  0  0
    1.2530   -0.6140    5.6330 C   0  0  0  0  0  0  0  0  0  0  0  0
    1.6830   -0.3570    4.3290 C   0  0  0  0  0  0  0  0  0  0  0  0
    1.4550   -1.2950    3.3210 C   0  0  0  0  0  0  0  0  0  0  0  0
    1.9080   -1.0100    1.9010 C   0  0  0  0  0  0  0  0  0  0  0  0
   -0.3220   -1.1980    0.7990 C   0  0  0  0  0  0  0  0  0  0  0  0
    1.4290    0.3390   -0.1420 C   0  0  0  0  0  0  0  0  0  0  0  0
    0.5890   -1.8030    5.9280 C   0  0  0  0  0  0  0  0  0  0  0  0
    0.3520   -2.7360    4.9200 C   0  0  0  0  0  0  0  0  0  0  0  0
    0.7810   -2.4820    3.6160 C   0  0  0  0  0  0  0  0  0  0  0  0
   -2.9770    0.3440   -2.5450 C   0  0  0  0  0  0  0  0  0  0  0  0
   -2.6200    2.1650   -0.8920 C   0  0  0  0  0  0  0  0  0  0  0  0
    1.4870    0.3300    6.6680 C   0  0  0  0  0  0  0  0  0  0  0  0
    0.1550   -2.0480    7.2560 C   0  0  0  0  0  0  0  0  0  0  0  0
   -3.9120    1.2310   -3.3130 C   0  0  0  0  0  0  0  0  0  0  0  0
   -3.5230    3.0550   -1.6220 C   0  0  0  0  0  0  0  0  0  0  0  0
    1.0550    0.0750    7.9700 C   0  0  0  0  0  0  0  0  0  0  0  0
    0.3900   -1.1120    8.2630 C   0  0  0  0  0  0  0  0  0  0  0  0
   -4.5670    2.2650   -2.4030 C   0  0  0  0  0  0  0  0  0  0  0  0
   -1.3560    1.6890   -2.3620 H   0  0  0  0  0  0  0  0  0  0  0  0
    0.4950    0.4590    1.6730 H   0  0  0  0  0  0  0  0  0  0  0  0
   -0.5640   -0.4980   -1.8590 H   0  0  0  0  0  0  0  0  0  0  0  0
   -2.2230   -1.0670   -0.1830 H   0  0  0  0  0  0  0  0  0  0  0  0
   -1.7880    0.3670    0.7770 H   0  0  0  0  0  0  0  0  0  0  0  0
    0.0430    1.9730   -0.2060 H   0  0  0  0  0  0  0  0  0  0  0  0
    0.7510    1.5420   -1.7820 H   0  0  0  0  0  0  0  0  0  0  0  0
    2.1920    0.5680    4.1010 H   0  0  0  0  0  0  0  0  0  0  0  0
    2.8030   -0.3890    1.9350 H   0  0  0  0  0  0  0  0  0  0  0  0
    2.1400   -1.9550    1.4100 H   0  0  0  0  0  0  0  0  0  0  0  0
   -0.7160   -1.6080    1.7290 H   0  0  0  0  0  0  0  0  0  0  0  0
    0.0040   -2.0120    0.1520 H   0  0  0  0  0  0  0  0  0  0  0  0
    1.7950   -0.4400   -0.8100 H   0  0  0  0  0  0  0  0  0  0  0  0
    2.2530    0.9970    0.1340 H   0  0  0  0  0  0  0  0  0  0  0  0
   -0.1640   -3.6570    5.1480 H   0  0  0  0  0  0  0  0  0  0  0  0
    0.5920   -3.2040    2.8350 H   0  0  0  0  0  0  0  0  0  0  0  0
   -3.5610   -0.2610   -1.8510 H   0  0  0  0  0  0  0  0  0  0  0  0
   -2.4590   -0.3080   -3.2480 H   0  0  0  0  0  0  0  0  0  0  0  0
   -1.8530    2.7750   -0.4140 H   0  0  0  0  0  0  0  0  0  0  0  0
   -3.1980    1.6440   -0.1290 H   0  0  0  0  0  0  0  0  0  0  0  0
    2.0030    1.2520    6.4460 H   0  0  0  0  0  0  0  0  0  0  0  0
   -0.3620   -2.9670    7.4890 H   0  0  0  0  0  0  0  0  0  0  0  0
   -4.6880    0.6180   -3.7700 H   0  0  0  0  0  0  0  0  0  0  0  0
   -3.3520    1.7480   -4.0920 H   0  0  0  0  0  0  0  0  0  0  0  0
   -2.9410    3.6590   -2.3180 H   0  0  0  0  0  0  0  0  0  0  0  0
   -4.0300    3.7080   -0.9110 H   0  0  0  0  0  0  0  0  0  0  0  0
    1.2370    0.7990    8.7510 H   0  0  0  0  0  0  0  0  0  0  0  0
    0.0560   -1.3080    9.2710 H   0  0  0  0  0  0  0  0  0  0  0  0
   -5.2250    1.7540   -1.7000 H   0  0  0  0  0  0  0  0  0  0  0  0
   -5.1520    2.9540   -3.0120 H   0  0  0  0  0  0  0  0  0  0  0  0
  1  3  1  0  0  0  0
  1 15  1  0  0  0  0
  1 16  1  0  0  0  0
  1 24  1  0  0  0  0
  2  9  1  0  0  0  0
  2 10  1  0  0  0  0
  2 11  1  0  0  0  0
  2 25  1  0  0  0  0
  3  4  1  0  0  0  0
  3  5  1  0  0  0  0
  3 26  1  0  0  0  0
  4 10  1  0  0  0  0
  4 27  1  0  0  0  0
  4 28  1  0  0  0  0
  5 11  1  0  0  0  0
  5 29  1  0  0  0  0
  5 30  1  0  0  0  0
  6  7  2  0  0  0  0
  6 12  1  0  0  0  0
  6 17  1  0  0  0  0
  7  8  1  0  0  0  0
  7 31  1  0  0  0  0
  8  9  1  0  0  0  0
  8 14  2  0  0  0  0
  9 32  1  0  0  0  0
  9 33  1  0  0  0  0
 10 34  1  0  0  0  0
 10 35  1  0  0  0  0
 11 36  1  0  0  0  0
 11 37  1  0  0  0  0
 12 13  2  0  0  0  0
 12 18  1  0  0  0  0
 13 14  1  0  0  0  0
 13 38  1  0  0  0  0
 14 39  1  0  0  0  0
 15 19  1  0  0  0  0
 15 40  1  0  0  0  0
 15 41  1  0  0  0  0
 16 20  1  0  0  0  0
 16 42  1  0  0  0  0
 16 43  1  0  0  0  0
 17 21  2  0  0  0  0
 17 44  1  0  0  0  0
 18 22  2  0  0  0  0
 18 45  1  0  0  0  0
 19 23  1  0  0  0  0
 19 46  1  0  0  0  0
 19 47  1  0  0  0  0
 20 23  1  0  0  0  0
 20 48  1  0  0  0  0
 20 49  1  0  0  0  0
 21 22  1  0  0  0  0
 21 50  1  0  0  0  0
 22 51  1  0  0  0  0
 23 52  1  0  0  0  0
 23 53  1  0  0  0  0
M  CHG  1   1   1
M  CHG  1   2   1
M  END
>  <$CLUSTER>
68

>  <INDEX>
496161

$$$$
Chembridge 5424021
  MOE2020           3D

 51 54  0  0  0  0  0  0  0  0999 V2000
   -9.1520    0.8160    2.1770 C   0  0  0  0  0  0  0  0  0  0  0  0
   -9.9180    1.5430    1.1400 C   0  0  0  0  0  0  0  0  0  0  0  0
  -11.3120    1.1140    0.9260 C   0  0  0  0  0  0  0  0  0  0  0  0
    0.5110    0.3500    0.0410 C   0  0  0  0  0  0  0  0  0  0  0  0
   -9.7730   -0.1540    2.8470 C   0  0  0  0  0  0  0  0  0  0  0  0
   -4.4120   -0.0740    0.0190 N   0  0  0  0  0  0  0  0  0  0  0  0
  -11.0730   -0.5470    2.6390 O   0  0  0  0  0  0  0  0  0  0  0  0
  -11.7880    0.1170    1.6740 C   0  0  0  0  0  0  0  0  0  0  0  0
   -7.7180    1.2370    2.4580 C   0  0  0  0  0  0  0  0  0  0  0  0
   -6.8030    0.9330    1.3130 N   0  3  0  0  0  0  0  0  0  0  0  0
   -0.6720   -0.5690   -0.0670 C   0  0  0  0  0  0  0  0  0  0  0  0
   -3.1570   -0.6740   -0.0640 C   0  0  0  0  0  0  0  0  0  0  0  0
   -2.0060    0.1090    0.0270 C   0  0  0  0  0  0  0  0  0  0  0  0
  -12.1010    1.7500   -0.0410 C   0  0  0  0  0  0  0  0  0  0  0  0
   -9.4320    2.4530    0.4810 O   0  0  0  0  0  0  0  0  0  0  0  0
   -4.5440    1.3660    0.2030 C   0  0  0  0  0  0  0  0  0  0  0  0
   -5.6320   -0.8670   -0.0720 C   0  0  0  0  0  0  0  0  0  0  0  0
    0.5260    1.0200    1.2260 F   0  0  0  0  0  0  0  0  0  0  0  0
    0.5110    1.2930   -0.9410 F   0  0  0  0  0  0  0  0  0  0  0  0
    1.7040   -0.3010   -0.0500 F   0  0  0  0  0  0  0  0  0  0  0  0
  -13.1320   -0.3380    1.5120 C   0  0  0  0  0  0  0  0  0  0  0  0
   -5.4840    1.6780    1.4150 C   0  0  0  0  0  0  0  0  0  0  0  0
   -6.5740   -0.5590    1.1400 C   0  0  0  0  0  0  0  0  0  0  0  0
  -13.4180    1.3240   -0.2220 C   0  0  0  0  0  0  0  0  0  0  0  0
  -13.9320    0.2830    0.5520 C   0  0  0  0  0  0  0  0  0  0  0  0
   -0.5740   -1.9010   -0.2360 C   0  0  0  0  0  0  0  0  0  0  0  0
   -3.0030   -2.0650   -0.2410 C   0  0  0  0  0  0  0  0  0  0  0  0
   -1.7420   -2.6710   -0.3260 C   0  0  0  0  0  0  0  0  0  0  0  0
  -14.2780    1.9870   -1.2500 C   0  0  0  0  0  0  0  0  0  0  0  0
   -9.2120   -0.6710    3.6120 H   0  0  0  0  0  0  0  0  0  0  0  0
   -7.3630    0.7060    3.3410 H   0  0  0  0  0  0  0  0  0  0  0  0
   -7.6980    2.3100    2.6470 H   0  0  0  0  0  0  0  0  0  0  0  0
   -7.2740    1.2660    0.4840 H   0  0  0  0  0  0  0  0  0  0  0  0
   -2.0740    1.1780    0.1620 H   0  0  0  0  0  0  0  0  0  0  0  0
  -11.6970    2.5560   -0.6360 H   0  0  0  0  0  0  0  0  0  0  0  0
   -4.9650    1.8060   -0.7010 H   0  0  0  0  0  0  0  0  0  0  0  0
   -3.5600    1.7960    0.3920 H   0  0  0  0  0  0  0  0  0  0  0  0
   -5.3740   -1.9260   -0.0660 H   0  0  0  0  0  0  0  0  0  0  0  0
   -6.1500   -0.6250   -1.0000 H   0  0  0  0  0  0  0  0  0  0  0  0
  -13.5200   -1.1430    2.1180 H   0  0  0  0  0  0  0  0  0  0  0  0
   -4.9820    1.3820    2.3360 H   0  0  0  0  0  0  0  0  0  0  0  0
   -5.6850    2.7490    1.4390 H   0  0  0  0  0  0  0  0  0  0  0  0
   -7.5350   -1.0460    0.9730 H   0  0  0  0  0  0  0  0  0  0  0  0
   -6.1200   -0.9540    2.0490 H   0  0  0  0  0  0  0  0  0  0  0  0
  -14.9510   -0.0430    0.4080 H   0  0  0  0  0  0  0  0  0  0  0  0
    0.3960   -2.3720   -0.3020 H   0  0  0  0  0  0  0  0  0  0  0  0
   -3.8860   -2.6830   -0.3130 H   0  0  0  0  0  0  0  0  0  0  0  0
   -1.6700   -3.7400   -0.4620 H   0  0  0  0  0  0  0  0  0  0  0  0
  -13.7080    2.7700   -1.7500 H   0  0  0  0  0  0  0  0  0  0  0  0
  -15.1510    2.4250   -0.7660 H   0  0  0  0  0  0  0  0  0  0  0  0
  -14.6020    1.2490   -1.9840 H   0  0  0  0  0  0  0  0  0  0  0  0
  1  2  1  0  0  0  0
  1  5  2  0  0  0  0
  1  9  1  0  0  0  0
  2  3  1  0  0  0  0
  2 15  2  0  0  0  0
  3  8  2  0  0  0  0
  3 14  1  0  0  0  0
  4 11  1  0  0  0  0
  4 18  1  0  0  0  0
  4 19  1  0  0  0  0
  4 20  1  0  0  0  0
  5  7  1  0  0  0  0
  5 30  1  0  0  0  0
  6 12  1  0  0  0  0
  6 16  1  0  0  0  0
  6 17  1  0  0  0  0
  7  8  1  0  0  0  0
  8 21  1  0  0  0  0
  9 10  1  0  0  0  0
  9 31  1  0  0  0  0
  9 32  1  0  0  0  0
 10 22  1  0  0  0  0
 10 23  1  0  0  0  0
 10 33  1  0  0  0  0
 11 13  2  0  0  0  0
 11 26  1  0  0  0  0
 12 13  1  0  0  0  0
 12 27  2  0  0  0  0
 13 34  1  0  0  0  0
 14 24  2  0  0  0  0
 14 35  1  0  0  0  0
 16 22  1  0  0  0  0
 16 36  1  0  0  0  0
 16 37  1  0  0  0  0
 17 23  1  0  0  0  0
 17 38  1  0  0  0  0
 17 39  1  0  0  0  0
 21 25  2  0  0  0  0
 21 40  1  0  0  0  0
 22 41  1  0  0  0  0
 22 42  1  0  0  0  0
 23 43  1  0  0  0  0
 23 44  1  0  0  0  0
 24 25  1  0  0  0  0
 24 29  1  0  0  0  0
 25 45  1  0  0  0  0
 26 28  2  0  0  0  0
 26 46  1  0  0  0  0
 27 28  1  0  0  0  0
 27 47  1  0  0  0  0
 28 48  1  0  0  0  0
 29 49  1  0  0  0  0
 29 50  1  0  0  0  0
 29 51  1  0  0  0  0
M  CHG  1  10   1
M  END
>  <$CLUSTER>
69

>  <INDEX>
44897

$$$$
Chembridge 5269683
  MOE2020           3D

 49 52  0  0  1  0  0  0  0  0999 V2000
   -1.0370    1.6940   -0.9880 N   0  3  3  0  0  0  0  0  0  0  0  0
    0.5940   -0.1020   -0.3160 C   0  0  0  0  0  0  0  0  0  0  0  0
   -0.2480   -0.4430    0.7630 C   0  0  0  0  0  0  0  0  0  0  0  0
    1.8570   -0.7060   -0.4130 C   0  0  0  0  0  0  0  0  0  0  0  0
    2.2890   -1.6130    0.5540 C   0  0  0  0  0  0  0  0  0  0  0  0
    1.4640   -1.9310    1.6280 C   0  0  0  0  0  0  0  0  0  0  0  0
    0.2040   -1.3480    1.7350 C   0  0  0  0  0  0  0  0  0  0  0  0
    0.1420    0.8550   -1.3970 C   0  0  0  0  0  0  0  0  0  0  0  0
    0.2560    5.9120   -2.1120 C   0  0  0  0  0  0  0  0  0  0  0  0
   -0.6520    4.8970   -1.8090 C   0  0  0  0  0  0  0  0  0  0  0  0
   -0.5760    3.6670   -2.4680 C   0  0  0  0  0  0  0  0  0  0  0  0
   -1.5390    2.5490   -2.1110 C   0  0  0  0  0  0  0  0  0  0  0  0
   -1.6060    0.2020    0.9190 C   0  0  0  0  0  0  0  0  0  0  0  0
   -2.1210    0.8430   -0.3760 C   0  0  0  0  0  0  0  0  0  0  0  0
    1.2540    5.6960   -3.0600 C   0  0  0  0  0  0  0  0  0  0  0  0
    1.3470    4.4630   -3.7030 C   0  0  0  0  0  0  0  0  0  0  0  0
    0.4410    3.4470   -3.4020 C   0  0  0  0  0  0  0  0  0  0  0  0
    3.5200   -2.2340    0.5280 O   0  0  0  0  0  0  0  0  0  0  0  0
    1.9720   -2.8370    2.5350 O   0  0  0  0  0  0  0  0  0  0  0  0
    0.1700    7.1670   -1.4590 C   0  0  0  0  0  0  0  0  0  0  0  0
    2.1770    6.7290   -3.3510 C   0  0  0  0  0  0  0  0  0  0  0  0
    4.3920   -1.9280   -0.5530 C   0  0  0  0  0  0  0  0  0  0  0  0
    1.1530   -3.1900    3.6420 C   0  0  0  0  0  0  0  0  0  0  0  0
    1.0830    8.1790   -1.7580 C   0  0  0  0  0  0  0  0  0  0  0  0
    2.0840    7.9600   -2.7020 C   0  0  0  0  0  0  0  0  0  0  0  0
   -0.7230    2.3350   -0.2730 H   0  0  0  0  0  0  0  0  0  0  0  0
    2.5010   -0.4660   -1.2460 H   0  0  0  0  0  0  0  0  0  0  0  0
   -0.4310   -1.5950    2.5730 H   0  0  0  0  0  0  0  0  0  0  0  0
    0.9710    1.5180   -1.6420 H   0  0  0  0  0  0  0  0  0  0  0  0
   -0.1330    0.2770   -2.2790 H   0  0  0  0  0  0  0  0  0  0  0  0
   -1.4160    5.0620   -1.0630 H   0  0  0  0  0  0  0  0  0  0  0  0
   -2.4910    2.9890   -1.8160 H   0  0  0  0  0  0  0  0  0  0  0  0
   -1.6860    1.9210   -2.9900 H   0  0  0  0  0  0  0  0  0  0  0  0
   -1.5370    0.9750    1.6850 H   0  0  0  0  0  0  0  0  0  0  0  0
   -2.3180   -0.5610    1.2350 H   0  0  0  0  0  0  0  0  0  0  0  0
   -2.4070    0.0600   -1.0790 H   0  0  0  0  0  0  0  0  0  0  0  0
   -2.9870    1.4650   -0.1530 H   0  0  0  0  0  0  0  0  0  0  0  0
    2.1220    4.2940   -4.4360 H   0  0  0  0  0  0  0  0  0  0  0  0
    0.5250    2.4880   -3.8910 H   0  0  0  0  0  0  0  0  0  0  0  0
   -0.6050    7.3410   -0.7270 H   0  0  0  0  0  0  0  0  0  0  0  0
    2.9570    6.5630   -4.0790 H   0  0  0  0  0  0  0  0  0  0  0  0
    5.3200   -2.4890   -0.4410 H   0  0  0  0  0  0  0  0  0  0  0  0
    4.6100   -0.8600   -0.5530 H   0  0  0  0  0  0  0  0  0  0  0  0
    3.9140   -2.2010   -1.4940 H   0  0  0  0  0  0  0  0  0  0  0  0
    1.6800   -3.9090    4.2690 H   0  0  0  0  0  0  0  0  0  0  0  0
    0.2260   -3.6350    3.2810 H   0  0  0  0  0  0  0  0  0  0  0  0
    0.9250   -2.2970    4.2250 H   0  0  0  0  0  0  0  0  0  0  0  0
    1.0140    9.1330   -1.2570 H   0  0  0  0  0  0  0  0  0  0  0  0
    2.7890    8.7450   -2.9320 H   0  0  0  0  0  0  0  0  0  0  0  0
  1  8  1  0  0  0  0
  1 12  1  0  0  0  0
  1 14  1  0  0  0  0
  1 26  1  0  0  0  0
  2  3  1  0  0  0  0
  2  4  2  0  0  0  0
  2  8  1  0  0  0  0
  3  7  2  0  0  0  0
  3 13  1  0  0  0  0
  4  5  1  0  0  0  0
  4 27  1  0  0  0  0
  5  6  2  0  0  0  0
  5 18  1  0  0  0  0
  6  7  1  0  0  0  0
  6 19  1  0  0  0  0
  7 28  1  0  0  0  0
  8 29  1  0  0  0  0
  8 30  1  0  0  0  0
  9 10  2  0  0  0  0
  9 15  1  0  0  0  0
  9 20  1  0  0  0  0
 10 11  1  0  0  0  0
 10 31  1  0  0  0  0
 11 12  1  0  0  0  0
 11 17  2  0  0  0  0
 12 32  1  0  0  0  0
 12 33  1  0  0  0  0
 13 14  1  0  0  0  0
 13 34  1  0  0  0  0
 13 35  1  0  0  0  0
 14 36  1  0  0  0  0
 14 37  1  0  0  0  0
 15 16  2  0  0  0  0
 15 21  1  0  0  0  0
 16 17  1  0  0  0  0
 16 38  1  0  0  0  0
 17 39  1  0  0  0  0
 18 22  1  0  0  0  0
 19 23  1  0  0  0  0
 20 24  2  0  0  0  0
 20 40  1  0  0  0  0
 21 25  2  0  0  0  0
 21 41  1  0  0  0  0
 22 42  1  0  0  0  0
 22 43  1  0  0  0  0
 22 44  1  0  0  0  0
 23 45  1  0  0  0  0
 23 46  1  0  0  0  0
 23 47  1  0  0  0  0
 24 25  1  0  0  0  0
 24 48  1  0  0  0  0
 25 49  1  0  0  0  0
M  CHG  1   1   1
M  END
>  <$CLUSTER>
70

>  <INDEX>
40625

$$$$
Chembridge 5460952
  MOE2020           3D

 37 40  0  0  0  0  0  0  0  0999 V2000
    0.1830   -0.6060   -0.3830 C   0  0  0  0  0  0  0  0  0  0  0  0
   -7.7710   -0.9930   -2.0650 C   0  0  0  0  0  0  0  0  0  0  0  0
    0.2950    0.3720    0.5680 C   0  0  0  0  0  0  0  0  0  0  0  0
    1.2110   -1.5040   -0.3330 O   0  0  0  0  0  0  0  0  0  0  0  0
    1.4080    0.2220    1.3450 O   0  0  0  0  0  0  0  0  0  0  0  0
    1.9840   -0.9710    0.7670 C   0  0  0  0  0  0  0  0  0  0  0  0
   -7.9740   -0.5670   -3.3730 C   0  0  0  0  0  0  0  0  0  0  0  0
   -0.8740   -0.6400   -1.2760 C   0  0  0  0  0  0  0  0  0  0  0  0
   -6.5130   -0.8530   -1.4710 C   0  0  0  0  0  0  0  0  0  0  0  0
   -4.2260   -0.1750   -1.5400 N   0  0  0  0  0  0  0  0  0  0  0  0
   -0.6430    1.3820    0.6900 C   0  0  0  0  0  0  0  0  0  0  0  0
   -6.9200   -0.0020   -4.0840 C   0  0  0  0  0  0  0  0  0  0  0  0
   -5.4330   -0.2860   -2.1690 C   0  0  0  0  0  0  0  0  0  0  0  0
   -1.8390    0.3700   -1.1770 C   0  0  0  0  0  0  0  0  0  0  0  0
   -3.0310    0.3890   -2.1440 C   0  0  0  0  0  0  0  0  0  0  0  0
   -5.6620    0.1360   -3.4870 C   0  0  0  0  0  0  0  0  0  0  0  0
   -1.7250    1.3750   -0.2000 C   0  0  0  0  0  0  0  0  0  0  0  0
   -9.0190   -1.5240   -1.4750 C   0  0  0  0  0  0  0  0  0  0  0  0
   -9.8490   -1.7770   -2.7360 C   0  0  0  0  0  0  0  0  0  0  0  0
   -9.3720   -0.7700   -3.7860 C   0  0  0  0  0  0  0  0  0  0  0  0
    2.9830   -0.7320    0.4040 H   0  0  0  0  0  0  0  0  0  0  0  0
    2.0520   -1.7330    1.5430 H   0  0  0  0  0  0  0  0  0  0  0  0
   -0.9520   -1.4170   -2.0220 H   0  0  0  0  0  0  0  0  0  0  0  0
   -6.3680   -1.1880   -0.4540 H   0  0  0  0  0  0  0  0  0  0  0  0
   -4.1590   -0.5080   -0.5890 H   0  0  0  0  0  0  0  0  0  0  0  0
   -0.5450    2.1480    1.4440 H   0  0  0  0  0  0  0  0  0  0  0  0
   -7.0730    0.3310   -5.1000 H   0  0  0  0  0  0  0  0  0  0  0  0
   -3.2350    1.4200   -2.4320 H   0  0  0  0  0  0  0  0  0  0  0  0
   -2.7760   -0.1920   -3.0300 H   0  0  0  0  0  0  0  0  0  0  0  0
   -4.8530    0.5750   -4.0510 H   0  0  0  0  0  0  0  0  0  0  0  0
   -2.4770    2.1470   -0.1350 H   0  0  0  0  0  0  0  0  0  0  0  0
   -9.4960   -0.7940   -0.8210 H   0  0  0  0  0  0  0  0  0  0  0  0
   -8.8400   -2.4460   -0.9210 H   0  0  0  0  0  0  0  0  0  0  0  0
  -10.9080   -1.6270   -2.5250 H   0  0  0  0  0  0  0  0  0  0  0  0
   -9.6900   -2.7950   -3.0920 H   0  0  0  0  0  0  0  0  0  0  0  0
   -9.4350   -1.1830   -4.7930 H   0  0  0  0  0  0  0  0  0  0  0  0
   -9.9420    0.1580   -3.7370 H   0  0  0  0  0  0  0  0  0  0  0  0
  1  3  2  0  0  0  0
  1  4  1  0  0  0  0
  1  8  1  0  0  0  0
  2  7  2  0  0  0  0
  2  9  1  0  0  0  0
  2 18  1  0  0  0  0
  3  5  1  0  0  0  0
  3 11  1  0  0  0  0
  4  6  1  0  0  0  0
  5  6  1  0  0  0  0
  6 21  1  0  0  0  0
  6 22  1  0  0  0  0
  7 12  1  0  0  0  0
  7 20  1  0  0  0  0
  8 14  2  0  0  0  0
  8 23  1  0  0  0  0
  9 13  2  0  0  0  0
  9 24  1  0  0  0  0
 10 13  1  0  0  0  0
 10 15  1  0  0  0  0
 10 25  1  0  0  0  0
 11 17  2  0  0  0  0
 11 26  1  0  0  0  0
 12 16  2  0  0  0  0
 12 27  1  0  0  0  0
 13 16  1  0  0  0  0
 14 15  1  0  0  0  0
 14 17  1  0  0  0  0
 15 28  1  0  0  0  0
 15 29  1  0  0  0  0
 16 30  1  0  0  0  0
 17 31  1  0  0  0  0
 18 19  1  0  0  0  0
 18 32  1  0  0  0  0
 18 33  1  0  0  0  0
 19 20  1  0  0  0  0
 19 34  1  0  0  0  0
 19 35  1  0  0  0  0
 20 36  1  0  0  0  0
 20 37  1  0  0  0  0
M  END
>  <$CLUSTER>
71

>  <INDEX>
46228

$$$$
Chembridge 5509842
  MOE2020           3D

 41 42  0  0  0  0  0  0  0  0999 V2000
    0.2820    0.0870    0.2080 C   0  0  0  0  0  0  0  0  0  0  0  0
   -1.6060    3.2940    0.5680 N   0  3  0  0  0  0  0  0  0  0  0  0
    1.5350   -0.4930    0.7050 C   0  0  0  0  0  0  0  0  0  0  0  0
   -0.0490    1.3910    0.6060 C   0  0  0  0  0  0  0  0  0  0  0  0
   -1.2440    1.9710    0.1810 C   0  0  0  0  0  0  0  0  0  0  0  0
    2.6490    0.2560    0.4980 N   0  0  0  0  0  0  0  0  0  0  0  0
   -0.5870   -0.6310   -0.6140 C   0  0  0  0  0  0  0  0  0  0  0  0
   -2.6740    3.8000    0.1840 O   0  5  0  0  0  0  0  0  0  0  0  0
   -0.7900    3.8790    1.2990 O   0  0  0  0  0  0  0  0  0  0  0  0
    1.5540   -1.5730    1.2860 O   0  0  0  0  0  0  0  0  0  0  0  0
    4.0010    0.0520    0.8200 C   0  0  0  0  0  0  0  0  0  0  0  0
    4.9360    1.0310    0.4530 C   0  0  0  0  0  0  0  0  0  0  0  0
   -2.1130    1.2540   -0.6390 C   0  0  0  0  0  0  0  0  0  0  0  0
   -1.7860   -0.0430   -1.0370 C   0  0  0  0  0  0  0  0  0  0  0  0
   -0.2390   -2.2200   -1.1950 Cl  0  0  0  0  0  0  0  0  0  0  0  0
    6.2910    0.8730    0.7540 C   0  0  0  0  0  0  0  0  0  0  0  0
    7.0920    1.9130    0.3340 O   0  0  0  0  0  0  0  0  0  0  0  0
    5.8060   -1.2460    1.7920 C   0  0  0  0  0  0  0  0  0  0  0  0
    4.4480   -1.0900    1.4920 C   0  0  0  0  0  0  0  0  0  0  0  0
    6.7270   -0.2660    1.4230 C   0  0  0  0  0  0  0  0  0  0  0  0
    8.4880    1.8050    0.6130 C   0  0  0  0  0  0  0  0  0  0  0  0
    9.1700    3.0480    0.0670 C   0  0  0  0  0  0  0  0  0  0  0  0
   10.6720    3.0170    0.3250 C   0  0  0  0  0  0  0  0  0  0  0  0
   11.3600    4.2620   -0.2210 C   0  0  0  0  0  0  0  0  0  0  0  0
    0.6230    1.9470    1.2430 H   0  0  0  0  0  0  0  0  0  0  0  0
    2.4710    1.1280    0.0200 H   0  0  0  0  0  0  0  0  0  0  0  0
    4.6050    1.9170   -0.0680 H   0  0  0  0  0  0  0  0  0  0  0  0
   -3.0400    1.7020   -0.9670 H   0  0  0  0  0  0  0  0  0  0  0  0
   -2.4600   -0.5960   -1.6740 H   0  0  0  0  0  0  0  0  0  0  0  0
    6.1430   -2.1300    2.3120 H   0  0  0  0  0  0  0  0  0  0  0  0
    3.7420   -1.8550    1.7810 H   0  0  0  0  0  0  0  0  0  0  0  0
    7.7740   -0.3910    1.6560 H   0  0  0  0  0  0  0  0  0  0  0  0
    8.8950    0.9170    0.1300 H   0  0  0  0  0  0  0  0  0  0  0  0
    8.6470    1.7380    1.6890 H   0  0  0  0  0  0  0  0  0  0  0  0
    8.7450    3.9270    0.5510 H   0  0  0  0  0  0  0  0  0  0  0  0
    8.9960    3.1050   -1.0070 H   0  0  0  0  0  0  0  0  0  0  0  0
   11.0960    2.1370   -0.1590 H   0  0  0  0  0  0  0  0  0  0  0  0
   10.8450    2.9590    1.4000 H   0  0  0  0  0  0  0  0  0  0  0  0
   11.1920    4.3280   -1.2960 H   0  0  0  0  0  0  0  0  0  0  0  0
   12.4300    4.2020   -0.0240 H   0  0  0  0  0  0  0  0  0  0  0  0
   10.9500    5.1470    0.2660 H   0  0  0  0  0  0  0  0  0  0  0  0
  1  3  1  0  0  0  0
  1  4  2  0  0  0  0
  1  7  1  0  0  0  0
  2  5  1  0  0  0  0
  2  8  1  0  0  0  0
  2  9  2  0  0  0  0
  3  6  1  0  0  0  0
  3 10  2  0  0  0  0
  4  5  1  0  0  0  0
  4 25  1  0  0  0  0
  5 13  2  0  0  0  0
  6 11  1  0  0  0  0
  6 26  1  0  0  0  0
  7 14  2  0  0  0  0
  7 15  1  0  0  0  0
 11 12  2  0  0  0  0
 11 19  1  0  0  0  0
 12 16  1  0  0  0  0
 12 27  1  0  0  0  0
 13 14  1  0  0  0  0
 13 28  1  0  0  0  0
 14 29  1  0  0  0  0
 16 17  1  0  0  0  0
 16 20  2  0  0  0  0
 17 21  1  0  0  0  0
 18 19  2  0  0  0  0
 18 20  1  0  0  0  0
 18 30  1  0  0  0  0
 19 31  1  0  0  0  0
 20 32  1  0  0  0  0
 21 22  1  0  0  0  0
 21 33  1  0  0  0  0
 21 34  1  0  0  0  0
 22 23  1  0  0  0  0
 22 35  1  0  0  0  0
 22 36  1  0  0  0  0
 23 24  1  0  0  0  0
 23 37  1  0  0  0  0
 23 38  1  0  0  0  0
 24 39  1  0  0  0  0
 24 40  1  0  0  0  0
 24 41  1  0  0  0  0
M  CHG  1   2   1
M  CHG  1   8  -1
M  END
>  <$CLUSTER>
72

>  <INDEX>
47619

$$$$
Chemdiv 0896-2223
  MOE2020           3D

 37 38  0  0  0  0  0  0  0  0999 V2000
    0.4180   -0.1200   -0.3380 C   0  0  0  0  0  0  0  0  0  0  0  0
    3.9450   -2.0030   -3.0140 C   0  0  0  0  0  0  0  0  0  0  0  0
    2.2800   -1.0570   -1.5860 N   0  0  0  0  0  0  0  0  0  0  0  0
    7.3070   -3.5630   -6.0220 C   0  0  0  0  0  0  0  0  0  0  0  0
    6.5330   -2.4330   -5.6040 C   0  0  0  0  0  0  0  0  0  0  0  0
   -0.4490    0.9640   -0.1670 C   0  0  0  0  0  0  0  0  0  0  0  0
    3.1580   -0.8480   -2.5910 N   0  0  0  0  0  0  0  0  0  0  0  0
    0.3000   -1.2400    0.4890 C   0  0  0  0  0  0  0  0  0  0  0  0
    5.6360   -2.7310   -4.5470 O   0  0  0  0  0  0  0  0  0  0  0  0
    8.2340   -3.3990   -7.0630 C   0  0  0  0  0  0  0  0  0  0  0  0
    3.8980   -3.1170   -2.5670 O   0  0  0  0  0  0  0  0  0  0  0  0
    1.4470   -0.0830   -1.3790 C   0  0  0  0  0  0  0  0  0  0  0  0
    4.8880   -1.6140   -4.1500 C   0  0  0  0  0  0  0  0  0  0  0  0
    6.7110   -1.2180   -6.2220 C   0  0  0  0  0  0  0  0  0  0  0  0
   -1.4310    0.9300    0.8270 C   0  0  0  0  0  0  0  0  0  0  0  0
   -0.6810   -1.2760    1.4830 C   0  0  0  0  0  0  0  0  0  0  0  0
    8.3980   -2.1590   -7.6760 C   0  0  0  0  0  0  0  0  0  0  0  0
   -1.5450   -0.1920    1.6510 C   0  0  0  0  0  0  0  0  0  0  0  0
    7.6390   -1.0710   -7.2560 C   0  0  0  0  0  0  0  0  0  0  0  0
    9.5310   -1.9900   -8.9360 Cl  0  0  0  0  0  0  0  0  0  0  0  0
   -0.8510   -2.7510    2.5870 Br  0  0  0  0  0  0  0  0  0  0  0  0
   -0.3390    2.0740   -0.9800 O   0  0  0  0  0  0  0  0  0  0  0  0
    7.1480   -4.9120   -5.3770 C   0  0  0  0  0  0  0  0  0  0  0  0
    3.2640    0.0570   -3.0260 H   0  0  0  0  0  0  0  0  0  0  0  0
    0.9680   -2.0790    0.3600 H   0  0  0  0  0  0  0  0  0  0  0  0
    8.8250   -4.2410   -7.3910 H   0  0  0  0  0  0  0  0  0  0  0  0
    1.5160    0.7950   -2.0040 H   0  0  0  0  0  0  0  0  0  0  0  0
    5.5630   -0.8290   -3.8080 H   0  0  0  0  0  0  0  0  0  0  0  0
    4.3050   -1.2490   -4.9960 H   0  0  0  0  0  0  0  0  0  0  0  0
    6.1270   -0.3670   -5.9040 H   0  0  0  0  0  0  0  0  0  0  0  0
   -2.0990    1.7680    0.9570 H   0  0  0  0  0  0  0  0  0  0  0  0
   -2.3030   -0.2210    2.4200 H   0  0  0  0  0  0  0  0  0  0  0  0
    7.7680   -0.1100   -7.7310 H   0  0  0  0  0  0  0  0  0  0  0  0
   -0.9710    2.7740   -0.7990 H   0  0  0  0  0  0  0  0  0  0  0  0
    6.3910   -4.8540   -4.5950 H   0  0  0  0  0  0  0  0  0  0  0  0
    8.0980   -5.2200   -4.9410 H   0  0  0  0  0  0  0  0  0  0  0  0
    6.8400   -5.6400   -6.1280 H   0  0  0  0  0  0  0  0  0  0  0  0
  1  6  2  0  0  0  0
  1  8  1  0  0  0  0
  1 12  1  0  0  0  0
  2  7  1  0  0  0  0
  2 11  2  0  0  0  0
  2 13  1  0  0  0  0
  3  7  1  0  0  0  0
  3 12  2  0  0  0  0
  4  5  2  0  0  0  0
  4 10  1  0  0  0  0
  4 23  1  0  0  0  0
  5  9  1  0  0  0  0
  5 14  1  0  0  0  0
  6 15  1  0  0  0  0
  6 22  1  0  0  0  0
  7 24  1  0  0  0  0
  8 16  2  0  0  0  0
  8 25  1  0  0  0  0
  9 13  1  0  0  0  0
 10 17  2  0  0  0  0
 10 26  1  0  0  0  0
 12 27  1  0  0  0  0
 13 28  1  0  0  0  0
 13 29  1  0  0  0  0
 14 19  2  0  0  0  0
 14 30  1  0  0  0  0
 15 18  2  0  0  0  0
 15 31  1  0  0  0  0
 16 18  1  0  0  0  0
 16 21  1  0  0  0  0
 17 19  1  0  0  0  0
 17 20  1  0  0  0  0
 18 32  1  0  0  0  0
 19 33  1  0  0  0  0
 22 34  1  0  0  0  0
 23 35  1  0  0  0  0
 23 36  1  0  0  0  0
 23 37  1  0  0  0  0
M  END
>  <$CLUSTER>
73

>  <INDEX>
3038

$$$$
Chembridge 5695101
  MOE2020           3D

 30 31  0  0  0  0  0  0  0  0999 V2000
   -0.2120    0.1430   -0.1870 C   0  0  0  0  0  0  0  0  0  0  0  0
   -0.4090    0.5500    1.1200 C   0  0  0  0  0  0  0  0  0  0  0  0
   -1.5870    0.4470   -1.1470 S   0  0  0  0  0  0  0  0  0  0  0  0
   -1.7030    1.1150    1.3220 C   0  0  0  0  0  0  0  0  0  0  0  0
    0.9330   -0.4440   -0.7110 N   0  0  0  0  0  0  0  0  0  0  0  0
    1.1310   -0.8530   -2.0250 C   0  0  0  0  0  0  0  0  0  0  0  0
    2.5080   -1.4440   -2.2010 C   0  0  0  0  0  0  0  0  0  0  0  0
   -2.4480    1.1190    0.1650 C   0  0  0  0  0  0  0  0  0  0  0  0
    0.5710    0.4220    2.1560 C   0  0  0  0  0  0  0  0  0  0  0  0
    1.3670    0.3170    2.9940 N   0  0  0  0  0  0  0  0  0  0  0  0
    2.6820   -2.6920   -2.8120 C   0  0  0  0  0  0  0  0  0  0  0  0
    3.6140   -0.6860   -1.8260 C   0  0  0  0  0  0  0  0  0  0  0  0
    0.3550   -0.7840   -2.9730 O   0  0  0  0  0  0  0  0  0  0  0  0
    3.9780   -3.1820   -3.0140 C   0  0  0  0  0  0  0  0  0  0  0  0
    4.9030   -1.1790   -2.0290 C   0  0  0  0  0  0  0  0  0  0  0  0
    1.3700   -3.7150   -3.2780 Cl  0  0  0  0  0  0  0  0  0  0  0  0
   -2.1460    1.6110    2.5950 C   0  0  0  0  0  0  0  0  0  0  0  0
    5.0850   -2.4260   -2.6240 C   0  0  0  0  0  0  0  0  0  0  0  0
    6.2430   -0.2470   -1.5450 Cl  0  0  0  0  0  0  0  0  0  0  0  0
   -3.8010    1.6210    0.0320 C   0  0  0  0  0  0  0  0  0  0  0  0
    1.7010   -0.5890   -0.0710 H   0  0  0  0  0  0  0  0  0  0  0  0
    3.4740    0.2860   -1.3770 H   0  0  0  0  0  0  0  0  0  0  0  0
    4.1220   -4.1490   -3.4730 H   0  0  0  0  0  0  0  0  0  0  0  0
   -1.3530    1.4820    3.3310 H   0  0  0  0  0  0  0  0  0  0  0  0
   -3.0300    1.0580    2.9130 H   0  0  0  0  0  0  0  0  0  0  0  0
   -2.3920    2.6690    2.5070 H   0  0  0  0  0  0  0  0  0  0  0  0
    6.0830   -2.8080   -2.7830 H   0  0  0  0  0  0  0  0  0  0  0  0
   -4.1360    1.4950   -0.9980 H   0  0  0  0  0  0  0  0  0  0  0  0
   -3.8240    2.6790    0.2940 H   0  0  0  0  0  0  0  0  0  0  0  0
   -4.4610    1.0670    0.6990 H   0  0  0  0  0  0  0  0  0  0  0  0
  1  2  2  0  0  0  0
  1  3  1  0  0  0  0
  1  5  1  0  0  0  0
  2  4  1  0  0  0  0
  2  9  1  0  0  0  0
  3  8  1  0  0  0  0
  4  8  2  0  0  0  0
  4 17  1  0  0  0  0
  5  6  1  0  0  0  0
  5 21  1  0  0  0  0
  6  7  1  0  0  0  0
  6 13  2  0  0  0  0
  7 11  2  0  0  0  0
  7 12  1  0  0  0  0
  8 20  1  0  0  0  0
  9 10  3  0  0  0  0
 11 14  1  0  0  0  0
 11 16  1  0  0  0  0
 12 15  2  0  0  0  0
 12 22  1  0  0  0  0
 14 18  2  0  0  0  0
 14 23  1  0  0  0  0
 15 18  1  0  0  0  0
 15 19  1  0  0  0  0
 17 24  1  0  0  0  0
 17 25  1  0  0  0  0
 17 26  1  0  0  0  0
 18 27  1  0  0  0  0
 20 28  1  0  0  0  0
 20 29  1  0  0  0  0
 20 30  1  0  0  0  0
M  END
>  <$CLUSTER>
74

>  <INDEX>
51017

$$$$
Chembridge 5729068
  MOE2020           3D

 42 45  0  0  0  0  0  0  0  0999 V2000
   -2.4680   -2.6460    2.5000 C   0  0  0  0  0  0  0  0  0  0  0  0
   -3.8410   -2.8680    3.0670 C   0  0  0  0  0  0  0  0  0  0  0  0
   -2.3100   -2.1420    1.1580 C   0  0  0  0  0  0  0  0  0  0  0  0
   -1.2870   -1.2520    0.9040 N   0  0  0  0  0  0  0  0  0  0  0  0
   -3.9410   -3.3970    4.3380 O   0  0  0  0  0  0  0  0  0  0  0  0
   -1.4140   -2.9180    3.2870 C   0  0  0  0  0  0  0  0  0  0  0  0
   -1.2780   -0.8970   -0.3660 C   0  0  0  0  0  0  0  0  0  0  0  0
   -2.7860   -3.6590    5.0780 C   0  0  0  0  0  0  0  0  0  0  0  0
   -1.5590   -3.4360    4.6150 C   0  0  0  0  0  0  0  0  0  0  0  0
   -2.5340   -1.6450   -1.3080 S   0  0  0  0  0  0  0  0  0  0  0  0
   -3.0930   -2.4730    0.0770 C   0  0  0  0  0  0  0  0  0  0  0  0
   -0.4310   -0.0430   -1.0000 N   0  0  0  0  0  0  0  0  0  0  0  0
   -4.8570   -2.5840    2.4390 O   0  0  0  0  0  0  0  0  0  0  0  0
   -2.9830   -4.1950    6.4030 C   0  0  0  0  0  0  0  0  0  0  0  0
    0.6600    0.6900   -0.4830 C   0  0  0  0  0  0  0  0  0  0  0  0
    1.3810    1.5130   -1.3710 C   0  0  0  0  0  0  0  0  0  0  0  0
    2.4730    2.2710   -0.9410 C   0  0  0  0  0  0  0  0  0  0  0  0
   -4.2980   -4.3760    6.8160 O   0  0  0  0  0  0  0  0  0  0  0  0
   -0.4070   -3.7520    5.3670 C   0  0  0  0  0  0  0  0  0  0  0  0
   -0.5690   -4.2710    6.6520 C   0  0  0  0  0  0  0  0  0  0  0  0
    2.1730    1.4180    1.2870 C   0  0  0  0  0  0  0  0  0  0  0  0
   -1.8480   -4.4940    7.1720 C   0  0  0  0  0  0  0  0  0  0  0  0
    1.0790    0.6590    0.8540 C   0  0  0  0  0  0  0  0  0  0  0  0
    2.8690    2.2230    0.3910 C   0  0  0  0  0  0  0  0  0  0  0  0
    3.2140    3.1310   -1.9120 C   0  0  0  0  0  0  0  0  0  0  0  0
   -4.4890   -4.9080    8.1320 C   0  0  0  0  0  0  0  0  0  0  0  0
   -0.4200   -2.7400    2.9040 H   0  0  0  0  0  0  0  0  0  0  0  0
   -3.9320   -3.1520    0.1000 H   0  0  0  0  0  0  0  0  0  0  0  0
   -0.6080    0.0860   -1.9860 H   0  0  0  0  0  0  0  0  0  0  0  0
    1.0830    1.5590   -2.4080 H   0  0  0  0  0  0  0  0  0  0  0  0
    0.5790   -3.5950    4.9560 H   0  0  0  0  0  0  0  0  0  0  0  0
    0.3000   -4.5020    7.2500 H   0  0  0  0  0  0  0  0  0  0  0  0
    2.4780    1.3780    2.3220 H   0  0  0  0  0  0  0  0  0  0  0  0
   -1.9620   -4.8970    8.1670 H   0  0  0  0  0  0  0  0  0  0  0  0
    0.5490    0.0390    1.5620 H   0  0  0  0  0  0  0  0  0  0  0  0
    3.7120    2.8070    0.7280 H   0  0  0  0  0  0  0  0  0  0  0  0
    2.7610    3.0380   -2.8990 H   0  0  0  0  0  0  0  0  0  0  0  0
    4.2550    2.8120   -1.9590 H   0  0  0  0  0  0  0  0  0  0  0  0
    3.1670    4.1700   -1.5870 H   0  0  0  0  0  0  0  0  0  0  0  0
   -5.5560   -5.0020    8.3350 H   0  0  0  0  0  0  0  0  0  0  0  0
   -4.0370   -4.2380    8.8640 H   0  0  0  0  0  0  0  0  0  0  0  0
   -4.0190   -5.8890    8.1990 H   0  0  0  0  0  0  0  0  0  0  0  0
  1  2  1  0  0  0  0
  1  3  1  0  0  0  0
  1  6  2  0  0  0  0
  2  5  1  0  0  0  0
  2 13  2  0  0  0  0
  3  4  1  0  0  0  0
  3 11  2  0  0  0  0
  4  7  2  0  0  0  0
  5  8  1  0  0  0  0
  6  9  1  0  0  0  0
  6 27  1  0  0  0  0
  7 10  1  0  0  0  0
  7 12  1  0  0  0  0
  8  9  2  0  0  0  0
  8 14  1  0  0  0  0
  9 19  1  0  0  0  0
 10 11  1  0  0  0  0
 11 28  1  0  0  0  0
 12 15  1  0  0  0  0
 12 29  1  0  0  0  0
 14 18  1  0  0  0  0
 14 22  2  0  0  0  0
 15 16  2  0  0  0  0
 15 23  1  0  0  0  0
 16 17  1  0  0  0  0
 16 30  1  0  0  0  0
 17 24  2  0  0  0  0
 17 25  1  0  0  0  0
 18 26  1  0  0  0  0
 19 20  2  0  0  0  0
 19 31  1  0  0  0  0
 20 22  1  0  0  0  0
 20 32  1  0  0  0  0
 21 23  2  0  0  0  0
 21 24  1  0  0  0  0
 21 33  1  0  0  0  0
 22 34  1  0  0  0  0
 23 35  1  0  0  0  0
 24 36  1  0  0  0  0
 25 37  1  0  0  0  0
 25 38  1  0  0  0  0
 25 39  1  0  0  0  0
 26 40  1  0  0  0  0
 26 41  1  0  0  0  0
 26 42  1  0  0  0  0
M  END
>  <$CLUSTER>
75

>  <INDEX>
51360

$$$$
Chembridge 5808022
  MOE2020           3D

 48 51  0  0  1  0  0  0  0  0999 V2000
   -1.0630   -0.1580    0.7990 C   0  0  0  0  0  0  0  0  0  0  0  0
    1.0540   -0.1780   -1.1110 C   0  0  0  0  0  0  0  0  0  0  0  0
    0.6380    1.0670   -0.6260 C   0  0  0  0  0  0  0  0  0  0  0  0
   -0.6190   -1.3150    0.2730 C   0  0  0  0  0  0  0  0  0  0  0  0
    1.9990   -0.2980   -2.0730 N   0  0  0  0  0  0  0  0  0  0  0  0
    2.1580    2.0980   -2.2000 N   0  0  0  0  0  0  0  0  0  0  0  0
    1.2260    2.1670   -1.2320 C   0  0  0  0  0  0  0  0  0  0  0  0
   -0.3730    1.1670    0.5070 C   0  0  3  0  0  0  0  0  0  0  0  0
    0.4360   -1.3370   -0.6150 N   0  0  0  0  0  0  0  0  0  0  0  0
   -2.2840   -0.1580    1.6540 C   0  0  0  0  0  0  0  0  0  0  0  0
    2.5010    0.8520   -2.5610 C   0  0  0  0  0  0  0  0  0  0  0  0
   -1.2360   -2.6550    0.5930 C   0  0  0  0  0  0  0  0  0  0  0  0
   -2.0270   -2.6750    1.9170 C   0  0  0  0  0  0  0  0  0  0  0  0
   -2.9790   -1.4720    1.9470 C   0  0  0  0  0  0  0  0  0  0  0  0
    0.3300    1.6680    1.7800 C   0  0  0  0  0  0  0  0  0  0  0  0
   -2.7610    0.8980    2.0660 O   0  0  0  0  0  0  0  0  0  0  0  0
    0.8530    3.4320   -0.8600 O   0  0  0  0  0  0  0  0  0  0  0  0
   -0.0750    2.9030    2.3550 C   0  0  0  0  0  0  0  0  0  0  0  0
    1.3640    0.9690    2.4120 C   0  0  0  0  0  0  0  0  0  0  0  0
    3.4310    0.7680   -3.4980 O   0  0  0  0  0  0  0  0  0  0  0  0
    1.5640    2.6700    4.1130 C   0  0  0  0  0  0  0  0  0  0  0  0
    0.5380    3.3910    3.5100 C   0  0  0  0  0  0  0  0  0  0  0  0
    1.9760    1.4590    3.5660 C   0  0  0  0  0  0  0  0  0  0  0  0
    2.2410    3.0470    5.2480 O   0  0  0  0  0  0  0  0  0  0  0  0
   -2.8480   -3.9750    1.9960 C   0  0  0  0  0  0  0  0  0  0  0  0
   -1.0710   -2.6400    3.1280 C   0  0  0  0  0  0  0  0  0  0  0  0
    1.8560    4.2790    5.8470 C   0  0  0  0  0  0  0  0  0  0  0  0
   -1.1430    1.8700    0.1900 H   0  0  0  0  0  0  0  0  0  0  0  0
    0.7820   -2.2340   -0.9250 H   0  0  0  0  0  0  0  0  0  0  0  0
   -0.4380   -3.3940    0.6580 H   0  0  0  0  0  0  0  0  0  0  0  0
   -1.9140   -2.9230   -0.2170 H   0  0  0  0  0  0  0  0  0  0  0  0
   -3.7580   -1.6270    1.2000 H   0  0  0  0  0  0  0  0  0  0  0  0
   -3.4320   -1.4120    2.9370 H   0  0  0  0  0  0  0  0  0  0  0  0
    1.2970    4.1410   -1.3310 H   0  0  0  0  0  0  0  0  0  0  0  0
   -0.8680    3.4720    1.8920 H   0  0  0  0  0  0  0  0  0  0  0  0
    1.6960    0.0290    1.9970 H   0  0  0  0  0  0  0  0  0  0  0  0
    3.7610    1.6110   -3.8190 H   0  0  0  0  0  0  0  0  0  0  0  0
    0.2160    4.3290    3.9360 H   0  0  0  0  0  0  0  0  0  0  0  0
    2.7700    0.8980    4.0350 H   0  0  0  0  0  0  0  0  0  0  0  0
   -3.5330   -4.0240    1.1500 H   0  0  0  0  0  0  0  0  0  0  0  0
   -3.4170   -3.9890    2.9250 H   0  0  0  0  0  0  0  0  0  0  0  0
   -2.1750   -4.8320    1.9690 H   0  0  0  0  0  0  0  0  0  0  0  0
   -0.4770   -1.7270    3.0950 H   0  0  0  0  0  0  0  0  0  0  0  0
   -0.4090   -3.5060    3.0940 H   0  0  0  0  0  0  0  0  0  0  0  0
   -1.6520   -2.6630    4.0500 H   0  0  0  0  0  0  0  0  0  0  0  0
    2.4660    4.4590    6.7320 H   0  0  0  0  0  0  0  0  0  0  0  0
    0.8050    4.2310    6.1330 H   0  0  0  0  0  0  0  0  0  0  0  0
    2.0020    5.0910    5.1340 H   0  0  0  0  0  0  0  0  0  0  0  0
  1  4  2  0  0  0  0
  1  8  1  0  0  0  0
  1 10  1  0  0  0  0
  2  3  2  0  0  0  0
  2  5  1  0  0  0  0
  2  9  1  0  0  0  0
  3  7  1  0  0  0  0
  3  8  1  0  0  0  0
  4  9  1  0  0  0  0
  4 12  1  0  0  0  0
  5 11  2  0  0  0  0
  6  7  2  0  0  0  0
  6 11  1  0  0  0  0
  7 17  1  0  0  0  0
  8 15  1  0  0  0  0
  8 28  1  0  0  0  0
  9 29  1  0  0  0  0
 10 14  1  0  0  0  0
 10 16  2  0  0  0  0
 11 20  1  0  0  0  0
 12 13  1  0  0  0  0
 12 30  1  0  0  0  0
 12 31  1  0  0  0  0
 13 14  1  0  0  0  0
 13 25  1  0  0  0  0
 13 26  1  0  0  0  0
 14 32  1  0  0  0  0
 14 33  1  0  0  0  0
 15 18  2  0  0  0  0
 15 19  1  0  0  0  0
 17 34  1  0  0  0  0
 18 22  1  0  0  0  0
 18 35  1  0  0  0  0
 19 23  2  0  0  0  0
 19 36  1  0  0  0  0
 20 37  1  0  0  0  0
 21 22  2  0  0  0  0
 21 23  1  0  0  0  0
 21 24  1  0  0  0  0
 22 38  1  0  0  0  0
 23 39  1  0  0  0  0
 24 27  1  0  0  0  0
 25 40  1  0  0  0  0
 25 41  1  0  0  0  0
 25 42  1  0  0  0  0
 26 43  1  0  0  0  0
 26 44  1  0  0  0  0
 26 45  1  0  0  0  0
 27 46  1  0  0  0  0
 27 47  1  0  0  0  0
 27 48  1  0  0  0  0
M  END
>  <$CLUSTER>
76

>  <INDEX>
52895

$$$$
Chembridge 5839398
  MOE2020           3D

 40 43  0  0  0  0  0  0  0  0999 V2000
   -7.2710   -0.4800   -3.1100 N   0  0  0  0  0  0  0  0  0  0  0  0
   -6.9910    0.8090   -3.1710 C   0  0  0  0  0  0  0  0  0  0  0  0
    1.3960    0.7600   -0.8040 N   0  3  0  0  0  0  0  0  0  0  0  0
   -0.6840   -0.1030    0.1850 C   0  0  0  0  0  0  0  0  0  0  0  0
   -1.4560    1.0090   -0.3840 C   0  0  0  0  0  0  0  0  0  0  0  0
   -7.9600    1.5620   -3.7840 O   0  0  0  0  0  0  0  0  0  0  0  0
    0.6960   -0.1830    0.0310 C   0  0  0  0  0  0  0  0  0  0  0  0
   -8.4960   -0.5800   -3.7180 C   0  0  0  0  0  0  0  0  0  0  0  0
   -8.9170    0.6580   -4.1280 C   0  0  0  0  0  0  0  0  0  0  0  0
   -2.6490    0.6900   -0.9410 N   0  0  0  0  0  0  0  0  0  0  0  0
   -5.8020    1.5340   -2.6800 C   0  0  0  0  0  0  0  0  0  0  0  0
   -9.3140   -1.6980   -3.9580 C   0  0  0  0  0  0  0  0  0  0  0  0
    1.1720    0.7200   -2.0240 O   0  5  0  0  0  0  0  0  0  0  0  0
    2.2250    1.5020   -0.2530 O   0  0  0  0  0  0  0  0  0  0  0  0
   -1.0180    2.1530   -0.3430 O   0  0  0  0  0  0  0  0  0  0  0  0
   -3.6400    1.4560   -1.5660 C   0  0  0  0  0  0  0  0  0  0  0  0
   -4.7880    0.8100   -2.0490 C   0  0  0  0  0  0  0  0  0  0  0  0
  -10.1200    0.9170   -4.7820 C   0  0  0  0  0  0  0  0  0  0  0  0
  -10.5350   -1.4830   -4.6140 C   0  0  0  0  0  0  0  0  0  0  0  0
   -1.3300   -1.0750    0.9600 C   0  0  0  0  0  0  0  0  0  0  0  0
  -10.9280   -0.2000   -5.0160 C   0  0  0  0  0  0  0  0  0  0  0  0
  -11.5520   -2.8220   -4.9210 Cl  0  0  0  0  0  0  0  0  0  0  0  0
    1.4470   -1.2040    0.6250 C   0  0  0  0  0  0  0  0  0  0  0  0
   -5.6800    2.9110   -2.8360 C   0  0  0  0  0  0  0  0  0  0  0  0
   -4.5440    3.5630   -2.3600 C   0  0  0  0  0  0  0  0  0  0  0  0
   -3.5260    2.8410   -1.7280 C   0  0  0  0  0  0  0  0  0  0  0  0
   -0.5930   -2.1020    1.5560 C   0  0  0  0  0  0  0  0  0  0  0  0
    0.7910   -2.1650    1.3920 C   0  0  0  0  0  0  0  0  0  0  0  0
   -2.8660   -0.2950   -0.8970 H   0  0  0  0  0  0  0  0  0  0  0  0
   -9.0130   -2.6880   -3.6480 H   0  0  0  0  0  0  0  0  0  0  0  0
   -4.8890   -0.2590   -1.9320 H   0  0  0  0  0  0  0  0  0  0  0  0
  -10.4080    1.9120   -5.0870 H   0  0  0  0  0  0  0  0  0  0  0  0
   -2.4000   -1.0310    1.0970 H   0  0  0  0  0  0  0  0  0  0  0  0
  -11.8760   -0.0710   -5.5180 H   0  0  0  0  0  0  0  0  0  0  0  0
    2.5180   -1.2460    0.4910 H   0  0  0  0  0  0  0  0  0  0  0  0
   -6.4630    3.4730   -3.3240 H   0  0  0  0  0  0  0  0  0  0  0  0
   -4.4490    4.6320   -2.4800 H   0  0  0  0  0  0  0  0  0  0  0  0
   -2.6490    3.3550   -1.3640 H   0  0  0  0  0  0  0  0  0  0  0  0
   -1.0980   -2.8520    2.1470 H   0  0  0  0  0  0  0  0  0  0  0  0
    1.3540   -2.9590    1.8600 H   0  0  0  0  0  0  0  0  0  0  0  0
  1  2  2  0  0  0  0
  1  8  1  0  0  0  0
  2  6  1  0  0  0  0
  2 11  1  0  0  0  0
  3  7  1  0  0  0  0
  3 13  1  0  0  0  0
  3 14  2  0  0  0  0
  4  5  1  0  0  0  0
  4  7  2  0  0  0  0
  4 20  1  0  0  0  0
  5 10  1  0  0  0  0
  5 15  2  0  0  0  0
  6  9  1  0  0  0  0
  7 23  1  0  0  0  0
  8  9  2  0  0  0  0
  8 12  1  0  0  0  0
  9 18  1  0  0  0  0
 10 16  1  0  0  0  0
 10 29  1  0  0  0  0
 11 17  2  0  0  0  0
 11 24  1  0  0  0  0
 12 19  2  0  0  0  0
 12 30  1  0  0  0  0
 16 17  1  0  0  0  0
 16 26  2  0  0  0  0
 17 31  1  0  0  0  0
 18 21  2  0  0  0  0
 18 32  1  0  0  0  0
 19 21  1  0  0  0  0
 19 22  1  0  0  0  0
 20 27  2  0  0  0  0
 20 33  1  0  0  0  0
 21 34  1  0  0  0  0
 23 28  2  0  0  0  0
 23 35  1  0  0  0  0
 24 25  2  0  0  0  0
 24 36  1  0  0  0  0
 25 26  1  0  0  0  0
 25 37  1  0  0  0  0
 26 38  1  0  0  0  0
 27 28  1  0  0  0  0
 27 39  1  0  0  0  0
 28 40  1  0  0  0  0
M  CHG  1   3   1
M  CHG  1  13  -1
M  END
>  <$CLUSTER>
77

>  <INDEX>
53368

$$$$
Chembridge 5859646
  MOE2020           3D

 49 50  0  0  0  0  0  0  0  0999 V2000
    1.5520   -0.1890    2.2980 C   0  0  0  0  0  0  0  0  0  0  0  0
   -0.9820    0.2830   -1.0830 N   0  0  0  0  0  0  0  0  0  0  0  0
    0.9820   -0.2830    1.0830 N   0  0  0  0  0  0  0  0  0  0  0  0
   -1.4900    0.2850   -2.3190 C   0  0  0  0  0  0  0  0  0  0  0  0
   -0.0020   -5.0320    6.9990 C   0  0  0  0  0  0  0  0  0  0  0  0
    0.2610   -4.1940    6.1790 C   0  0  0  0  0  0  0  0  0  0  0  0
    1.1820   -1.2540    3.3000 C   0  0  0  0  0  0  0  0  0  0  0  0
   -0.3220   -6.0550    7.9950 C   0  0  0  0  0  0  0  0  0  0  0  0
   -0.0330    1.3000   -0.5920 C   0  0  0  0  0  0  0  0  0  0  0  0
   -1.2520   -0.6880   -0.0050 C   0  0  0  0  0  0  0  0  0  0  0  0
    0.0330   -1.3000    0.5920 C   0  0  0  0  0  0  0  0  0  0  0  0
    1.2520    0.6880    0.0050 C   0  0  0  0  0  0  0  0  0  0  0  0
   -1.2450    1.1090   -3.1950 O   0  0  0  0  0  0  0  0  0  0  0  0
    2.3400    0.7000    2.6280 O   0  0  0  0  0  0  0  0  0  0  0  0
    0.5760   -3.1960    5.2020 C   0  0  0  0  0  0  0  0  0  0  0  0
    2.0900   -1.5260    4.3280 C   0  0  0  0  0  0  0  0  0  0  0  0
   -0.0260   -1.9320    3.2280 C   0  0  0  0  0  0  0  0  0  0  0  0
   -2.3450   -0.7470   -2.5560 O   0  0  0  0  0  0  0  0  0  0  0  0
   -0.3280   -2.9080    4.1810 C   0  0  0  0  0  0  0  0  0  0  0  0
    1.7830   -2.5040    5.2770 C   0  0  0  0  0  0  0  0  0  0  0  0
   -0.3100   -7.3460    7.3800 O   0  0  0  0  0  0  0  0  0  0  0  0
    0.7340   -6.0750    9.1040 C   0  0  0  0  0  0  0  0  0  0  0  0
   -1.7120   -5.8200    8.5920 C   0  0  0  0  0  0  0  0  0  0  0  0
   -2.9540   -0.8650   -3.8280 C   0  0  0  0  0  0  0  0  0  0  0  0
   -3.8540   -2.0830   -3.8400 C   0  0  0  0  0  0  0  0  0  0  0  0
   -0.5260    1.8920    0.1790 H   0  0  0  0  0  0  0  0  0  0  0  0
    0.2450    1.9470   -1.4240 H   0  0  0  0  0  0  0  0  0  0  0  0
   -1.8650   -1.4940   -0.4090 H   0  0  0  0  0  0  0  0  0  0  0  0
   -1.7970   -0.1810    0.7910 H   0  0  0  0  0  0  0  0  0  0  0  0
   -0.2450   -1.9470    1.4240 H   0  0  0  0  0  0  0  0  0  0  0  0
    0.5260   -1.8920   -0.1790 H   0  0  0  0  0  0  0  0  0  0  0  0
    1.7970    0.1810   -0.7910 H   0  0  0  0  0  0  0  0  0  0  0  0
    1.8650    1.4940    0.4090 H   0  0  0  0  0  0  0  0  0  0  0  0
    3.0220   -0.9840    4.3880 H   0  0  0  0  0  0  0  0  0  0  0  0
   -0.7290   -1.7070    2.4400 H   0  0  0  0  0  0  0  0  0  0  0  0
   -1.2660   -3.4410    4.1260 H   0  0  0  0  0  0  0  0  0  0  0  0
    2.4820   -2.7240    6.0700 H   0  0  0  0  0  0  0  0  0  0  0  0
    0.5650   -7.4830    7.0090 H   0  0  0  0  0  0  0  0  0  0  0  0
    1.7180   -6.2430    8.6660 H   0  0  0  0  0  0  0  0  0  0  0  0
    0.5080   -6.8770    9.8070 H   0  0  0  0  0  0  0  0  0  0  0  0
    0.7280   -5.1200    9.6290 H   0  0  0  0  0  0  0  0  0  0  0  0
   -2.4530   -5.8080    7.7930 H   0  0  0  0  0  0  0  0  0  0  0  0
   -1.7260   -4.8640    9.1150 H   0  0  0  0  0  0  0  0  0  0  0  0
   -1.9460   -6.6210    9.2930 H   0  0  0  0  0  0  0  0  0  0  0  0
   -2.1840   -0.9730   -4.5920 H   0  0  0  0  0  0  0  0  0  0  0  0
   -3.5460    0.0270   -4.0330 H   0  0  0  0  0  0  0  0  0  0  0  0
   -3.2610   -2.9750   -3.6350 H   0  0  0  0  0  0  0  0  0  0  0  0
   -4.3250   -2.1770   -4.8180 H   0  0  0  0  0  0  0  0  0  0  0  0
   -4.6230   -1.9740   -3.0750 H   0  0  0  0  0  0  0  0  0  0  0  0
  1  3  1  0  0  0  0
  1  7  1  0  0  0  0
  1 14  2  0  0  0  0
  2  4  1  0  0  0  0
  2  9  1  0  0  0  0
  2 10  1  0  0  0  0
  3 11  1  0  0  0  0
  3 12  1  0  0  0  0
  4 13  2  0  0  0  0
  4 18  1  0  0  0  0
  5  6  3  0  0  0  0
  5  8  1  0  0  0  0
  6 15  1  0  0  0  0
  7 16  1  0  0  0  0
  7 17  2  0  0  0  0
  8 21  1  0  0  0  0
  8 22  1  0  0  0  0
  8 23  1  0  0  0  0
  9 12  1  0  0  0  0
  9 26  1  0  0  0  0
  9 27  1  0  0  0  0
 10 11  1  0  0  0  0
 10 28  1  0  0  0  0
 10 29  1  0  0  0  0
 11 30  1  0  0  0  0
 11 31  1  0  0  0  0
 12 32  1  0  0  0  0
 12 33  1  0  0  0  0
 15 19  2  0  0  0  0
 15 20  1  0  0  0  0
 16 20  2  0  0  0  0
 16 34  1  0  0  0  0
 17 19  1  0  0  0  0
 17 35  1  0  0  0  0
 18 24  1  0  0  0  0
 19 36  1  0  0  0  0
 20 37  1  0  0  0  0
 21 38  1  0  0  0  0
 22 39  1  0  0  0  0
 22 40  1  0  0  0  0
 22 41  1  0  0  0  0
 23 42  1  0  0  0  0
 23 43  1  0  0  0  0
 23 44  1  0  0  0  0
 24 25  1  0  0  0  0
 24 45  1  0  0  0  0
 24 46  1  0  0  0  0
 25 47  1  0  0  0  0
 25 48  1  0  0  0  0
 25 49  1  0  0  0  0
M  END
>  <$CLUSTER>
78

>  <INDEX>
53762

$$$$
Chembridge 5907901
  MOE2020           3D

 42 44  0  0  0  0  0  0  0  0999 V2000
   -0.0670    0.1120   -0.3050 N   0  0  0  0  0  0  0  0  0  0  0  0
   -1.0190    1.1040   -0.5810 C   0  0  0  0  0  0  0  0  0  0  0  0
   -0.6600    0.2130    2.0810 C   0  0  0  0  0  0  0  0  0  0  0  0
    0.1740   -0.3730    0.9930 C   0  0  0  0  0  0  0  0  0  0  0  0
   -1.6310    1.6900    0.4990 N   0  0  0  0  0  0  0  0  0  0  0  0
   -1.4970    1.3870    1.8170 C   0  0  0  0  0  0  0  0  0  0  0  0
   -0.5890   -0.3700    3.2920 C   0  0  0  0  0  0  0  0  0  0  0  0
    0.7310   -0.4640   -1.3560 C   0  0  0  0  0  0  0  0  0  0  0  0
   -1.5500    1.6320   -2.1010 S   0  0  0  0  0  0  0  0  0  0  0  0
    1.0340   -1.2120    1.2740 O   0  0  0  0  0  0  0  0  0  0  0  0
   -2.4350   -0.7150    6.5490 C   0  0  0  0  0  0  0  0  0  0  0  0
   -2.0350    2.0620    2.6900 O   0  0  0  0  0  0  0  0  0  0  0  0
   -1.3470   -0.0310    4.5380 C   0  0  0  0  0  0  0  0  0  0  0  0
   -2.7520    0.6100    6.8360 C   0  0  0  0  0  0  0  0  0  0  0  0
   -1.7280   -1.0280    5.3870 C   0  0  0  0  0  0  0  0  0  0  0  0
    0.7840   -1.8580   -1.5240 C   0  0  0  0  0  0  0  0  0  0  0  0
    1.5020    0.3490   -2.2010 C   0  0  0  0  0  0  0  0  0  0  0  0
   -2.3580    1.6230    5.9640 C   0  0  0  0  0  0  0  0  0  0  0  0
   -1.6520    1.3110    4.8010 C   0  0  0  0  0  0  0  0  0  0  0  0
   -2.8740   -1.6440    7.4870 O   0  0  0  0  0  0  0  0  0  0  0  0
    1.5680   -2.4210   -2.5330 C   0  0  0  0  0  0  0  0  0  0  0  0
    2.2870   -0.2180   -3.2070 C   0  0  0  0  0  0  0  0  0  0  0  0
    2.3160   -1.6010   -3.3750 C   0  0  0  0  0  0  0  0  0  0  0  0
   -3.4430    0.9170    7.9720 O   0  0  0  0  0  0  0  0  0  0  0  0
    3.1510   -2.2020   -4.4590 C   0  0  0  0  0  0  0  0  0  0  0  0
   -2.5750   -3.0120    7.2350 C   0  0  0  0  0  0  0  0  0  0  0  0
   -2.2650    2.4470    0.2860 H   0  0  0  0  0  0  0  0  0  0  0  0
    0.1070   -1.1910    3.3760 H   0  0  0  0  0  0  0  0  0  0  0  0
   -1.4840   -2.0550    5.1610 H   0  0  0  0  0  0  0  0  0  0  0  0
    0.2140   -2.4990   -0.8680 H   0  0  0  0  0  0  0  0  0  0  0  0
    1.4880    1.4210   -2.0720 H   0  0  0  0  0  0  0  0  0  0  0  0
   -2.5990    2.6510    6.1880 H   0  0  0  0  0  0  0  0  0  0  0  0
   -1.3470    2.0890    4.1170 H   0  0  0  0  0  0  0  0  0  0  0  0
    1.5950   -3.4930   -2.6610 H   0  0  0  0  0  0  0  0  0  0  0  0
    2.8730    0.4160   -3.8560 H   0  0  0  0  0  0  0  0  0  0  0  0
   -3.6750    0.1650    8.5220 H   0  0  0  0  0  0  0  0  0  0  0  0
    3.0490   -3.2870   -4.4370 H   0  0  0  0  0  0  0  0  0  0  0  0
    4.1960   -1.9320   -4.3050 H   0  0  0  0  0  0  0  0  0  0  0  0
    2.8170   -1.8250   -5.4260 H   0  0  0  0  0  0  0  0  0  0  0  0
   -2.9740   -3.6260    8.0430 H   0  0  0  0  0  0  0  0  0  0  0  0
   -1.4940   -3.1430    7.1780 H   0  0  0  0  0  0  0  0  0  0  0  0
   -3.0280   -3.3150    6.2910 H   0  0  0  0  0  0  0  0  0  0  0  0
  1  2  1  0  0  0  0
  1  4  1  0  0  0  0
  1  8  1  0  0  0  0
  2  5  1  0  0  0  0
  2  9  2  0  0  0  0
  3  4  1  0  0  0  0
  3  6  1  0  0  0  0
  3  7  2  0  0  0  0
  4 10  2  0  0  0  0
  5  6  1  0  0  0  0
  5 27  1  0  0  0  0
  6 12  2  0  0  0  0
  7 13  1  0  0  0  0
  7 28  1  0  0  0  0
  8 16  1  0  0  0  0
  8 17  2  0  0  0  0
 11 14  1  0  0  0  0
 11 15  2  0  0  0  0
 11 20  1  0  0  0  0
 13 15  1  0  0  0  0
 13 19  2  0  0  0  0
 14 18  2  0  0  0  0
 14 24  1  0  0  0  0
 15 29  1  0  0  0  0
 16 21  2  0  0  0  0
 16 30  1  0  0  0  0
 17 22  1  0  0  0  0
 17 31  1  0  0  0  0
 18 19  1  0  0  0  0
 18 32  1  0  0  0  0
 19 33  1  0  0  0  0
 20 26  1  0  0  0  0
 21 23  1  0  0  0  0
 21 34  1  0  0  0  0
 22 23  2  0  0  0  0
 22 35  1  0  0  0  0
 23 25  1  0  0  0  0
 24 36  1  0  0  0  0
 25 37  1  0  0  0  0
 25 38  1  0  0  0  0
 25 39  1  0  0  0  0
 26 40  1  0  0  0  0
 26 41  1  0  0  0  0
 26 42  1  0  0  0  0
M  END
>  <$CLUSTER>
79

>  <INDEX>
54134

$$$$
Chembridge 5986268
  MOE2020           3D

 30 31  0  0  0  0  0  0  0  0999 V2000
    0.4370    0.8490   -0.4350 C   0  0  0  0  0  0  0  0  0  0  0  0
   -0.1290   -1.0740    0.9370 N   0  0  0  0  0  0  0  0  0  0  0  0
    0.7340   -0.0090    0.7310 C   0  0  0  0  0  0  0  0  0  0  0  0
   -1.2440   -1.3460    0.1660 C   0  0  0  0  0  0  0  0  0  0  0  0
   -1.4890   -0.4970   -0.8670 N   0  0  0  0  0  0  0  0  0  0  0  0
   -0.7660    0.5870   -1.2540 C   0  0  0  0  0  0  0  0  0  0  0  0
    1.2110    1.8850   -0.8020 C   0  0  0  0  0  0  0  0  0  0  0  0
   -2.0010   -2.2910    0.3760 O   0  0  0  0  0  0  0  0  0  0  0  0
    1.6820    0.2190    1.4810 O   0  0  0  0  0  0  0  0  0  0  0  0
   -1.0950    1.2820   -2.2130 O   0  0  0  0  0  0  0  0  0  0  0  0
    2.4890    2.3490   -0.1780 C   0  0  0  0  0  0  0  0  0  0  0  0
    0.1720   -1.9540    2.0590 C   0  0  0  0  0  0  0  0  0  0  0  0
    4.8540    3.2110    0.9820 C   0  0  0  0  0  0  0  0  0  0  0  0
    3.4780    2.8600   -0.9720 C   0  0  0  0  0  0  0  0  0  0  0  0
    2.6470    2.2530    1.2110 C   0  0  0  0  0  0  0  0  0  0  0  0
    4.6720    3.2980   -0.3960 C   0  0  0  0  0  0  0  0  0  0  0  0
    3.8410    2.6920    1.7850 C   0  0  0  0  0  0  0  0  0  0  0  0
    6.1340    3.6760    1.5960 C   0  0  0  0  0  0  0  0  0  0  0  0
   -2.3130   -0.6970   -1.4160 H   0  0  0  0  0  0  0  0  0  0  0  0
    0.8670    2.4530   -1.6540 H   0  0  0  0  0  0  0  0  0  0  0  0
    1.0750   -1.6060    2.5610 H   0  0  0  0  0  0  0  0  0  0  0  0
    0.3280   -2.9690    1.6930 H   0  0  0  0  0  0  0  0  0  0  0  0
   -0.6610   -1.9450    2.7620 H   0  0  0  0  0  0  0  0  0  0  0  0
    3.3360    2.9250   -2.0410 H   0  0  0  0  0  0  0  0  0  0  0  0
    1.8580    1.8460    1.8270 H   0  0  0  0  0  0  0  0  0  0  0  0
    5.4550    3.7040   -1.0190 H   0  0  0  0  0  0  0  0  0  0  0  0
    3.9800    2.6290    2.8540 H   0  0  0  0  0  0  0  0  0  0  0  0
    6.7980    4.0460    0.8150 H   0  0  0  0  0  0  0  0  0  0  0  0
    6.6110    2.8450    2.1150 H   0  0  0  0  0  0  0  0  0  0  0  0
    5.9270    4.4770    2.3060 H   0  0  0  0  0  0  0  0  0  0  0  0
  1  3  1  0  0  0  0
  1  6  1  0  0  0  0
  1  7  2  0  0  0  0
  2  3  1  0  0  0  0
  2  4  1  0  0  0  0
  2 12  1  0  0  0  0
  3  9  2  0  0  0  0
  4  5  1  0  0  0  0
  4  8  2  0  0  0  0
  5  6  1  0  0  0  0
  5 19  1  0  0  0  0
  6 10  2  0  0  0  0
  7 11  1  0  0  0  0
  7 20  1  0  0  0  0
 11 14  2  0  0  0  0
 11 15  1  0  0  0  0
 12 21  1  0  0  0  0
 12 22  1  0  0  0  0
 12 23  1  0  0  0  0
 13 16  2  0  0  0  0
 13 17  1  0  0  0  0
 13 18  1  0  0  0  0
 14 16  1  0  0  0  0
 14 24  1  0  0  0  0
 15 17  2  0  0  0  0
 15 25  1  0  0  0  0
 16 26  1  0  0  0  0
 17 27  1  0  0  0  0
 18 28  1  0  0  0  0
 18 29  1  0  0  0  0
 18 30  1  0  0  0  0
M  END
>  <$CLUSTER>
80

>  <INDEX>
55031

$$$$
Chembridge 7268492
  MOE2020           3D

 44 45  0  0  1  0  0  0  0  0999 V2000
    0.6010   -0.3190   -0.3800 C   0  0  3  0  0  0  0  0  0  0  0  0
    0.1420   -1.7390   -0.6940 C   0  0  0  0  0  0  0  0  0  0  0  0
   -0.5220    0.5170    0.2600 C   0  0  3  0  0  0  0  0  0  0  0  0
    1.2270    1.8260   -1.5990 C   0  0  0  0  0  0  0  0  0  0  0  0
    0.7240    2.5520   -0.5900 C   0  0  0  0  0  0  0  0  0  0  0  0
    1.0900    0.3340   -1.6850 C   0  0  0  0  0  0  0  0  0  0  0  0
   -0.0600    1.9540    0.5410 C   0  0  0  0  0  0  0  0  0  0  0  0
   -0.9880   -0.0230    1.6140 C   0  0  0  0  0  0  0  0  0  0  0  0
    1.1570   -2.6050   -0.9480 N   0  0  0  0  0  0  0  0  0  0  0  0
    2.4870   -5.9600   -1.7920 C   0  0  0  0  0  0  0  0  0  0  0  0
    1.1840   -3.9710   -1.2740 C   0  0  0  0  0  0  0  0  0  0  0  0
   -1.0340   -2.0870   -0.7590 O   0  0  0  0  0  0  0  0  0  0  0  0
    2.4220   -4.6040   -1.4640 C   0  0  0  0  0  0  0  0  0  0  0  0
    1.3160   -6.6980   -1.9350 C   0  0  0  0  0  0  0  0  0  0  0  0
   -0.1370   -0.6230    2.3330 O   0  0  0  0  0  0  0  0  0  0  0  0
    0.0810   -6.0790   -1.7490 C   0  0  0  0  0  0  0  0  0  0  0  0
   -2.1990    0.2140    1.9080 O   0  5  0  0  0  0  0  0  0  0  0  0
    0.0130   -4.7210   -1.4200 C   0  0  0  0  0  0  0  0  0  0  0  0
    0.9170    4.0480   -0.5260 C   0  0  0  0  0  0  0  0  0  0  0  0
    1.9790    2.4750   -2.7360 C   0  0  0  0  0  0  0  0  0  0  0  0
    3.8160   -6.6130   -1.9890 C   0  0  0  0  0  0  0  0  0  0  0  0
    1.3790   -8.1480   -2.2870 C   0  0  0  0  0  0  0  0  0  0  0  0
    1.4130   -0.3600    0.3470 H   0  0  0  0  0  0  0  0  0  0  0  0
   -1.3320    0.4720   -0.4680 H   0  0  0  0  0  0  0  0  0  0  0  0
    0.3770    0.0990   -2.4750 H   0  0  0  0  0  0  0  0  0  0  0  0
    2.0630   -0.0870   -1.9370 H   0  0  0  0  0  0  0  0  0  0  0  0
    0.5670    1.9490    1.4330 H   0  0  0  0  0  0  0  0  0  0  0  0
   -0.9400    2.5730    0.7190 H   0  0  0  0  0  0  0  0  0  0  0  0
    2.0730   -2.1840   -0.8910 H   0  0  0  0  0  0  0  0  0  0  0  0
    3.3340   -4.0360   -1.3550 H   0  0  0  0  0  0  0  0  0  0  0  0
   -0.8280   -6.6510   -1.8590 H   0  0  0  0  0  0  0  0  0  0  0  0
   -0.9480   -4.2500   -1.2780 H   0  0  0  0  0  0  0  0  0  0  0  0
    0.4320    4.4390    0.3680 H   0  0  0  0  0  0  0  0  0  0  0  0
    0.4760    4.5090   -1.4100 H   0  0  0  0  0  0  0  0  0  0  0  0
    1.9820    4.2760   -0.4910 H   0  0  0  0  0  0  0  0  0  0  0  0
    2.2990    1.7100   -3.4430 H   0  0  0  0  0  0  0  0  0  0  0  0
    2.8530    2.9960   -2.3440 H   0  0  0  0  0  0  0  0  0  0  0  0
    1.3280    3.1880   -3.2420 H   0  0  0  0  0  0  0  0  0  0  0  0
    4.6080   -5.8790   -1.8360 H   0  0  0  0  0  0  0  0  0  0  0  0
    3.8790   -7.0100   -3.0020 H   0  0  0  0  0  0  0  0  0  0  0  0
    3.9310   -7.4260   -1.2730 H   0  0  0  0  0  0  0  0  0  0  0  0
    2.4210   -8.4520   -2.3910 H   0  0  0  0  0  0  0  0  0  0  0  0
    0.8560   -8.3170   -3.2280 H   0  0  0  0  0  0  0  0  0  0  0  0
    0.9070   -8.7340   -1.4990 H   0  0  0  0  0  0  0  0  0  0  0  0
  1  2  1  0  0  0  0
  1  3  1  0  0  0  0
  1  6  1  0  0  0  0
  1 23  1  0  0  0  0
  2  9  1  0  0  0  0
  2 12  2  0  0  0  0
  3  7  1  0  0  0  0
  3  8  1  0  0  0  0
  3 24  1  0  0  0  0
  4  5  2  0  0  0  0
  4  6  1  0  0  0  0
  4 20  1  0  0  0  0
  5  7  1  0  0  0  0
  5 19  1  0  0  0  0
  6 25  1  0  0  0  0
  6 26  1  0  0  0  0
  7 27  1  0  0  0  0
  7 28  1  0  0  0  0
  8 15  2  0  0  0  0
  8 17  1  0  0  0  0
  9 11  1  0  0  0  0
  9 29  1  0  0  0  0
 10 13  2  0  0  0  0
 10 14  1  0  0  0  0
 10 21  1  0  0  0  0
 11 13  1  0  0  0  0
 11 18  2  0  0  0  0
 13 30  1  0  0  0  0
 14 16  2  0  0  0  0
 14 22  1  0  0  0  0
 16 18  1  0  0  0  0
 16 31  1  0  0  0  0
 18 32  1  0  0  0  0
 19 33  1  0  0  0  0
 19 34  1  0  0  0  0
 19 35  1  0  0  0  0
 20 36  1  0  0  0  0
 20 37  1  0  0  0  0
 20 38  1  0  0  0  0
 21 39  1  0  0  0  0
 21 40  1  0  0  0  0
 21 41  1  0  0  0  0
 22 42  1  0  0  0  0
 22 43  1  0  0  0  0
 22 44  1  0  0  0  0
M  CHG  1  17  -1
M  END
>  <$CLUSTER>
81

>  <INDEX>
76004

$$$$
Asinex ASN 01157533
  MOE2020           3D

 41 42  0  0  0  0  0  0  0  0999 V2000
   -2.4250    0.6760    0.4840 C   0  0  0  0  0  0  0  0  0  0  0  0
   -1.1430    0.2770    0.8410 N   0  0  0  0  0  0  0  0  0  0  0  0
   -0.0200    0.0880   -0.0080 C   0  0  0  0  0  0  0  0  0  0  0  0
   -3.5760   -0.5910    2.3260 N   0  3  0  0  0  0  0  0  0  0  0  0
    1.2050   -0.3260    0.5690 C   0  0  0  0  0  0  0  0  0  0  0  0
   -3.3240    0.7530    1.6930 C   0  0  0  0  0  0  0  0  0  0  0  0
    2.3280   -0.5180   -0.2540 C   0  0  0  0  0  0  0  0  0  0  0  0
   -2.8530    0.9480   -0.6320 O   0  0  0  0  0  0  0  0  0  0  0  0
   -0.0760    0.2960   -1.3940 C   0  0  0  0  0  0  0  0  0  0  0  0
    2.2530   -0.3070   -1.6270 C   0  0  0  0  0  0  0  0  0  0  0  0
   -4.1420   -0.4710    3.7070 C   0  0  0  0  0  0  0  0  0  0  0  0
   -4.4140   -1.5100    1.4720 C   0  0  0  0  0  0  0  0  0  0  0  0
    1.0520    0.1000   -2.1960 C   0  0  0  0  0  0  0  0  0  0  0  0
    3.9460   -0.6090   -2.7850 I   0  0  0  0  0  0  0  0  0  0  0  0
   -4.2560   -1.8370    4.3730 C   0  0  0  0  0  0  0  0  0  0  0  0
   -4.5270   -2.8800    2.0940 C   0  0  0  0  0  0  0  0  0  0  0  0
   -5.0880   -2.8050    3.5210 C   0  0  0  0  0  0  0  0  0  0  0  0
    1.3540   -0.5720    2.0480 C   0  0  0  0  0  0  0  0  0  0  0  0
   -5.1370   -4.1910    4.1610 C   0  0  0  0  0  0  0  0  0  0  0  0
   -0.9910    0.1000    1.8240 H   0  0  0  0  0  0  0  0  0  0  0  0
   -2.6660   -1.0220    2.4020 H   0  0  0  0  0  0  0  0  0  0  0  0
   -4.2800    1.1780    1.3880 H   0  0  0  0  0  0  0  0  0  0  0  0
   -2.8570    1.4030    2.4330 H   0  0  0  0  0  0  0  0  0  0  0  0
    3.2620   -0.8340    0.1860 H   0  0  0  0  0  0  0  0  0  0  0  0
   -1.0040    0.6120   -1.8480 H   0  0  0  0  0  0  0  0  0  0  0  0
   -5.1320   -0.0200    3.6480 H   0  0  0  0  0  0  0  0  0  0  0  0
   -3.4890    0.1640    4.3060 H   0  0  0  0  0  0  0  0  0  0  0  0
   -3.9510   -1.6030    0.4890 H   0  0  0  0  0  0  0  0  0  0  0  0
   -5.4120   -1.0850    1.3650 H   0  0  0  0  0  0  0  0  0  0  0  0
    0.9900    0.2650   -3.2610 H   0  0  0  0  0  0  0  0  0  0  0  0
   -4.7340   -1.7190    5.3450 H   0  0  0  0  0  0  0  0  0  0  0  0
   -3.2570   -2.2510    4.5070 H   0  0  0  0  0  0  0  0  0  0  0  0
   -3.5380   -3.3370    2.1260 H   0  0  0  0  0  0  0  0  0  0  0  0
   -5.1910   -3.4920    1.4840 H   0  0  0  0  0  0  0  0  0  0  0  0
   -6.1090   -2.4260    3.4690 H   0  0  0  0  0  0  0  0  0  0  0  0
    0.4030   -0.3820    2.5460 H   0  0  0  0  0  0  0  0  0  0  0  0
    2.1150    0.0950    2.4520 H   0  0  0  0  0  0  0  0  0  0  0  0
    1.6510   -1.6070    2.2160 H   0  0  0  0  0  0  0  0  0  0  0  0
   -4.1270   -4.5970    4.2260 H   0  0  0  0  0  0  0  0  0  0  0  0
   -5.7550   -4.8510    3.5520 H   0  0  0  0  0  0  0  0  0  0  0  0
   -5.5630   -4.1140    5.1610 H   0  0  0  0  0  0  0  0  0  0  0  0
  1  2  1  0  0  0  0
  1  6  1  0  0  0  0
  1  8  2  0  0  0  0
  2  3  1  0  0  0  0
  2 20  1  0  0  0  0
  3  5  2  0  0  0  0
  3  9  1  0  0  0  0
  4  6  1  0  0  0  0
  4 11  1  0  0  0  0
  4 12  1  0  0  0  0
  4 21  1  0  0  0  0
  5  7  1  0  0  0  0
  5 18  1  0  0  0  0
  6 22  1  0  0  0  0
  6 23  1  0  0  0  0
  7 10  2  0  0  0  0
  7 24  1  0  0  0  0
  9 13  2  0  0  0  0
  9 25  1  0  0  0  0
 10 13  1  0  0  0  0
 10 14  1  0  0  0  0
 11 15  1  0  0  0  0
 11 26  1  0  0  0  0
 11 27  1  0  0  0  0
 12 16  1  0  0  0  0
 12 28  1  0  0  0  0
 12 29  1  0  0  0  0
 13 30  1  0  0  0  0
 15 17  1  0  0  0  0
 15 31  1  0  0  0  0
 15 32  1  0  0  0  0
 16 17  1  0  0  0  0
 16 33  1  0  0  0  0
 16 34  1  0  0  0  0
 17 19  1  0  0  0  0
 17 35  1  0  0  0  0
 18 36  1  0  0  0  0
 18 37  1  0  0  0  0
 18 38  1  0  0  0  0
 19 39  1  0  0  0  0
 19 40  1  0  0  0  0
 19 41  1  0  0  0  0
M  CHG  1   4   1
M  END
>  <$CLUSTER>
82

>  <INDEX>
125397

$$$$
Lithuania 1070054
  MOE2020           3D

 47 49  0  0  0  0  0  0  0  0999 V2000
   -2.2900   -0.0720    0.5220 C   0  0  0  0  0  0  0  0  0  0  0  0
   -1.1980   -0.7620    0.0120 N   0  0  0  0  0  0  0  0  0  0  0  0
    5.3120    0.1120   -0.7800 C   0  0  0  0  0  0  0  0  0  0  0  0
    4.2200    0.8020   -0.2690 N   0  0  0  0  0  0  0  0  0  0  0  0
   -2.3090    1.0450    1.0290 O   0  0  0  0  0  0  0  0  0  0  0  0
   -3.5560   -0.8800    0.3880 C   0  0  0  0  0  0  0  0  0  0  0  0
    5.3300   -1.0040   -1.2880 O   0  0  0  0  0  0  0  0  0  0  0  0
    0.1480   -0.3280   -0.0380 C   0  0  0  0  0  0  0  0  0  0  0  0
    7.6920    0.2210   -1.1650 O   0  0  0  0  0  0  0  0  0  0  0  0
    2.8640    0.3670   -0.2190 C   0  0  0  0  0  0  0  0  0  0  0  0
    6.5780    0.9200   -0.6460 C   0  0  0  0  0  0  0  0  0  0  0  0
    8.9090    0.8020   -1.1250 C   0  0  0  0  0  0  0  0  0  0  0  0
   11.5290    1.7950   -1.1540 C   0  0  0  0  0  0  0  0  0  0  0  0
    0.5960    0.9080    0.4390 C   0  0  0  0  0  0  0  0  0  0  0  0
    1.0790   -1.2110   -0.6060 C   0  0  0  0  0  0  0  0  0  0  0  0
    2.4290   -0.8660   -0.6960 C   0  0  0  0  0  0  0  0  0  0  0  0
    1.9490    1.2510    0.3470 C   0  0  0  0  0  0  0  0  0  0  0  0
    9.1870    2.0690   -0.6030 C   0  0  0  0  0  0  0  0  0  0  0  0
    9.9520    0.0380   -1.6600 C   0  0  0  0  0  0  0  0  0  0  0  0
   10.4950    2.5610   -0.6190 C   0  0  0  0  0  0  0  0  0  0  0  0
   11.2580    0.5330   -1.6740 C   0  0  0  0  0  0  0  0  0  0  0  0
   -4.7740   -0.1320    0.3640 C   0  0  0  0  0  0  0  0  0  0  0  0
   -3.6110   -2.2530    0.3570 C   0  0  0  0  0  0  0  0  0  0  0  0
   12.9250    2.3250   -1.1700 C   0  0  0  0  0  0  0  0  0  0  0  0
   -5.9960   -0.8010    0.2660 C   0  0  0  0  0  0  0  0  0  0  0  0
   -4.8360   -2.9180    0.2590 C   0  0  0  0  0  0  0  0  0  0  0  0
   -6.0260   -2.1930    0.2120 C   0  0  0  0  0  0  0  0  0  0  0  0
   -1.3860   -1.6790   -0.3670 H   0  0  0  0  0  0  0  0  0  0  0  0
    4.4090    1.7180    0.1110 H   0  0  0  0  0  0  0  0  0  0  0  0
    6.7530    1.1330    0.4080 H   0  0  0  0  0  0  0  0  0  0  0  0
    6.4610    1.8560   -1.1920 H   0  0  0  0  0  0  0  0  0  0  0  0
   -0.1060    1.6010    0.8800 H   0  0  0  0  0  0  0  0  0  0  0  0
    0.7470   -2.1690   -0.9780 H   0  0  0  0  0  0  0  0  0  0  0  0
    3.1350   -1.5550   -1.1350 H   0  0  0  0  0  0  0  0  0  0  0  0
    2.2860    2.2080    0.7170 H   0  0  0  0  0  0  0  0  0  0  0  0
    8.3900    2.6680   -0.1870 H   0  0  0  0  0  0  0  0  0  0  0  0
    9.7460   -0.9420   -2.0650 H   0  0  0  0  0  0  0  0  0  0  0  0
   10.7060    3.5400   -0.2150 H   0  0  0  0  0  0  0  0  0  0  0  0
   12.0570   -0.0640   -2.0880 H   0  0  0  0  0  0  0  0  0  0  0  0
   -4.7490    0.9460    0.4210 H   0  0  0  0  0  0  0  0  0  0  0  0
   -2.6960   -2.8250    0.4090 H   0  0  0  0  0  0  0  0  0  0  0  0
   12.9410    3.3200   -0.7240 H   0  0  0  0  0  0  0  0  0  0  0  0
   13.2800    2.3820   -2.1990 H   0  0  0  0  0  0  0  0  0  0  0  0
   13.5730    1.6600   -0.5990 H   0  0  0  0  0  0  0  0  0  0  0  0
   -6.9180   -0.2390    0.2320 H   0  0  0  0  0  0  0  0  0  0  0  0
   -4.8610   -3.9970    0.2200 H   0  0  0  0  0  0  0  0  0  0  0  0
   -6.9710   -2.7100    0.1340 H   0  0  0  0  0  0  0  0  0  0  0  0
  1  2  1  0  0  0  0
  1  5  2  0  0  0  0
  1  6  1  0  0  0  0
  2  8  1  0  0  0  0
  2 28  1  0  0  0  0
  3  4  1  0  0  0  0
  3  7  2  0  0  0  0
  3 11  1  0  0  0  0
  4 10  1  0  0  0  0
  4 29  1  0  0  0  0
  6 22  2  0  0  0  0
  6 23  1  0  0  0  0
  8 14  1  0  0  0  0
  8 15  2  0  0  0  0
  9 11  1  0  0  0  0
  9 12  1  0  0  0  0
 10 16  2  0  0  0  0
 10 17  1  0  0  0  0
 11 30  1  0  0  0  0
 11 31  1  0  0  0  0
 12 18  2  0  0  0  0
 12 19  1  0  0  0  0
 13 20  2  0  0  0  0
 13 21  1  0  0  0  0
 13 24  1  0  0  0  0
 14 17  2  0  0  0  0
 14 32  1  0  0  0  0
 15 16  1  0  0  0  0
 15 33  1  0  0  0  0
 16 34  1  0  0  0  0
 17 35  1  0  0  0  0
 18 20  1  0  0  0  0
 18 36  1  0  0  0  0
 19 21  2  0  0  0  0
 19 37  1  0  0  0  0
 20 38  1  0  0  0  0
 21 39  1  0  0  0  0
 22 25  1  0  0  0  0
 22 40  1  0  0  0  0
 23 26  2  0  0  0  0
 23 41  1  0  0  0  0
 24 42  1  0  0  0  0
 24 43  1  0  0  0  0
 24 44  1  0  0  0  0
 25 27  2  0  0  0  0
 25 45  1  0  0  0  0
 26 27  1  0  0  0  0
 26 46  1  0  0  0  0
 27 47  1  0  0  0  0
M  END
>  <$CLUSTER>
83

>  <INDEX>
222923

$$$$
Chembridge 6073872
  MOE2020           3D

 33 35  0  0  0  0  0  0  0  0999 V2000
    1.4620    0.0640   -1.9640 S   0  0  0  0  0  0  0  0  0  0  0  0
    0.5100   -0.0820   -0.5540 C   0  0  0  0  0  0  0  0  0  0  0  0
    1.2490   -1.6270   -2.1700 C   0  0  0  0  0  0  0  0  0  0  0  0
    0.5210   -2.2060   -1.2390 N   0  0  0  0  0  0  0  0  0  0  0  0
    0.0860   -1.2980   -0.2890 N   0  0  0  0  0  0  0  0  0  0  0  0
    0.3020    1.0900    0.1320 N   0  0  0  0  0  0  0  0  0  0  0  0
   -0.4530    1.1270    1.2960 C   0  0  0  0  0  0  0  0  0  0  0  0
    1.8470   -2.3720   -3.3200 C   0  0  0  0  0  0  0  0  0  0  0  0
   -0.5280    2.4080    1.8140 N   0  0  0  0  0  0  0  0  0  0  0  0
   -1.0040    0.1710    1.8390 O   0  0  0  0  0  0  0  0  0  0  0  0
    1.6190   -3.7550   -3.4300 C   0  0  0  0  0  0  0  0  0  0  0  0
   -1.1780    2.9100    2.9640 C   0  0  0  0  0  0  0  0  0  0  0  0
    2.1570   -4.4970   -4.4870 C   0  0  0  0  0  0  0  0  0  0  0  0
   -2.4320    4.0120    5.2240 C   0  0  0  0  0  0  0  0  0  0  0  0
    1.9700   -5.8100   -4.6360 F   0  0  0  0  0  0  0  0  0  0  0  0
   -3.1880    4.6870    6.5900 Cl  0  0  0  0  0  0  0  0  0  0  0  0
   -1.9140    2.0980    3.8330 C   0  0  0  0  0  0  0  0  0  0  0  0
   -1.0790    4.2810    3.2430 C   0  0  0  0  0  0  0  0  0  0  0  0
   -1.7020    4.8290    4.3660 C   0  0  0  0  0  0  0  0  0  0  0  0
   -2.5370    2.6480    4.9560 C   0  0  0  0  0  0  0  0  0  0  0  0
    2.6350   -1.7590   -4.3090 C   0  0  0  0  0  0  0  0  0  0  0  0
    3.1720   -2.5020   -5.3660 C   0  0  0  0  0  0  0  0  0  0  0  0
    2.9330   -3.8700   -5.4550 C   0  0  0  0  0  0  0  0  0  0  0  0
    0.7080    1.9450   -0.2190 H   0  0  0  0  0  0  0  0  0  0  0  0
   -0.0320    3.1050    1.2770 H   0  0  0  0  0  0  0  0  0  0  0  0
    1.0170   -4.2540   -2.6850 H   0  0  0  0  0  0  0  0  0  0  0  0
   -2.0010    1.0400    3.6350 H   0  0  0  0  0  0  0  0  0  0  0  0
   -0.5140    4.9210    2.5810 H   0  0  0  0  0  0  0  0  0  0  0  0
   -1.6170    5.8860    4.5690 H   0  0  0  0  0  0  0  0  0  0  0  0
   -3.1030    2.0130    5.6210 H   0  0  0  0  0  0  0  0  0  0  0  0
    2.8290   -0.6980   -4.2520 H   0  0  0  0  0  0  0  0  0  0  0  0
    3.7750   -2.0120   -6.1160 H   0  0  0  0  0  0  0  0  0  0  0  0
    3.3480   -4.4420   -6.2720 H   0  0  0  0  0  0  0  0  0  0  0  0
  1  2  1  0  0  0  0
  1  3  1  0  0  0  0
  2  5  2  0  0  0  0
  2  6  1  0  0  0  0
  3  4  2  0  0  0  0
  3  8  1  0  0  0  0
  4  5  1  0  0  0  0
  6  7  1  0  0  0  0
  6 24  1  0  0  0  0
  7  9  1  0  0  0  0
  7 10  2  0  0  0  0
  8 11  2  0  0  0  0
  8 21  1  0  0  0  0
  9 12  1  0  0  0  0
  9 25  1  0  0  0  0
 11 13  1  0  0  0  0
 11 26  1  0  0  0  0
 12 17  1  0  0  0  0
 12 18  2  0  0  0  0
 13 15  1  0  0  0  0
 13 23  2  0  0  0  0
 14 16  1  0  0  0  0
 14 19  2  0  0  0  0
 14 20  1  0  0  0  0
 17 20  2  0  0  0  0
 17 27  1  0  0  0  0
 18 19  1  0  0  0  0
 18 28  1  0  0  0  0
 19 29  1  0  0  0  0
 20 30  1  0  0  0  0
 21 22  2  0  0  0  0
 21 31  1  0  0  0  0
 22 23  1  0  0  0  0
 22 32  1  0  0  0  0
 23 33  1  0  0  0  0
M  END
>  <$CLUSTER>
84

>  <INDEX>
58604

$$$$
Nanosyn NS40942
  MOE2020           3D

 47 49  0  0  0  0  0  0  0  0999 V2000
    0.5050    2.0520   -0.7350 S   0  0  0  0  0  0  0  0  0  0  0  0
    1.7710    1.4840    4.3480 C   0  0  0  0  0  0  0  0  0  0  0  0
    0.6050    0.4240   -1.2640 N   0  0  0  0  0  0  0  0  0  0  0  0
    1.6930    2.0340    0.5890 C   0  0  0  0  0  0  0  0  0  0  0  0
    0.6720    0.6710    4.5170 N   0  0  0  0  0  0  0  0  0  0  0  0
    2.1810    1.7790    2.9560 C   0  0  0  0  0  0  0  0  0  0  0  0
    1.0520    2.8960   -1.7810 O   0  0  0  0  0  0  0  0  0  0  0  0
   -0.7960    2.3370   -0.1630 O   0  0  0  0  0  0  0  0  0  0  0  0
    1.2650    1.7540    1.9030 C   0  0  0  0  0  0  0  0  0  0  0  0
    2.4140    1.9460    5.2880 O   0  0  0  0  0  0  0  0  0  0  0  0
    0.0220   -0.5940   -0.4320 C   0  0  0  0  0  0  0  0  0  0  0  0
    0.0260    0.1980    5.6410 C   0  0  0  0  0  0  0  0  0  0  0  0
   -1.0630   -2.5590    1.2270 C   0  0  0  0  0  0  0  0  0  0  0  0
   -1.3670   -0.8250    7.8560 C   0  0  0  0  0  0  0  0  0  0  0  0
    0.4430    0.5010    6.9400 C   0  0  0  0  0  0  0  0  0  0  0  0
   -1.0970   -0.6240    5.4650 C   0  0  0  0  0  0  0  0  0  0  0  0
   -1.3610   -0.6700   -0.2530 C   0  0  0  0  0  0  0  0  0  0  0  0
    0.8630   -1.5010    0.2200 C   0  0  0  0  0  0  0  0  0  0  0  0
   -1.9010   -1.6540    0.5760 C   0  0  0  0  0  0  0  0  0  0  0  0
   -1.7900   -1.1330    6.5650 C   0  0  0  0  0  0  0  0  0  0  0  0
   -0.2530   -0.0100    8.0410 C   0  0  0  0  0  0  0  0  0  0  0  0
    0.3180   -2.4830    1.0480 C   0  0  0  0  0  0  0  0  0  0  0  0
    3.0340    2.3720    0.3590 C   0  0  0  0  0  0  0  0  0  0  0  0
    3.5180    2.0990    2.7120 C   0  0  0  0  0  0  0  0  0  0  0  0
    3.9440    2.3950    1.4160 C   0  0  0  0  0  0  0  0  0  0  0  0
   -1.6420   -3.6100    2.1170 C   0  0  0  0  0  0  0  0  0  0  0  0
   -2.1060   -1.3680    9.0340 C   0  0  0  0  0  0  0  0  0  0  0  0
    1.0600    0.1870   -2.1340 H   0  0  0  0  0  0  0  0  0  0  0  0
    0.2580    0.3610    3.6490 H   0  0  0  0  0  0  0  0  0  0  0  0
    0.2280    1.5200    2.0950 H   0  0  0  0  0  0  0  0  0  0  0  0
    1.3060    1.1320    7.0950 H   0  0  0  0  0  0  0  0  0  0  0  0
   -1.4300   -0.8660    4.4660 H   0  0  0  0  0  0  0  0  0  0  0  0
   -2.0110    0.0310   -0.7550 H   0  0  0  0  0  0  0  0  0  0  0  0
    1.9330   -1.4420    0.0830 H   0  0  0  0  0  0  0  0  0  0  0  0
   -2.9700   -1.7150    0.7140 H   0  0  0  0  0  0  0  0  0  0  0  0
   -2.6530   -1.7650    6.4150 H   0  0  0  0  0  0  0  0  0  0  0  0
    0.0760    0.2290    9.0410 H   0  0  0  0  0  0  0  0  0  0  0  0
    0.9660   -3.1850    1.5510 H   0  0  0  0  0  0  0  0  0  0  0  0
    3.3640    2.6150   -0.6400 H   0  0  0  0  0  0  0  0  0  0  0  0
    4.2250    2.1180    3.5280 H   0  0  0  0  0  0  0  0  0  0  0  0
    4.9790    2.6420    1.2320 H   0  0  0  0  0  0  0  0  0  0  0  0
   -2.7280   -3.5140    2.1330 H   0  0  0  0  0  0  0  0  0  0  0  0
   -1.2510   -3.4870    3.1270 H   0  0  0  0  0  0  0  0  0  0  0  0
   -1.3700   -4.5960    1.7400 H   0  0  0  0  0  0  0  0  0  0  0  0
   -2.9410   -1.9780    8.6890 H   0  0  0  0  0  0  0  0  0  0  0  0
   -2.4840   -0.5430    9.6380 H   0  0  0  0  0  0  0  0  0  0  0  0
   -1.4330   -1.9790    9.6350 H   0  0  0  0  0  0  0  0  0  0  0  0
  1  3  1  0  0  0  0
  1  4  1  0  0  0  0
  1  7  2  0  0  0  0
  1  8  2  0  0  0  0
  2  5  1  0  0  0  0
  2  6  1  0  0  0  0
  2 10  2  0  0  0  0
  3 11  1  0  0  0  0
  3 28  1  0  0  0  0
  4  9  2  0  0  0  0
  4 23  1  0  0  0  0
  5 12  1  0  0  0  0
  5 29  1  0  0  0  0
  6  9  1  0  0  0  0
  6 24  2  0  0  0  0
  9 30  1  0  0  0  0
 11 17  2  0  0  0  0
 11 18  1  0  0  0  0
 12 15  1  0  0  0  0
 12 16  2  0  0  0  0
 13 19  2  0  0  0  0
 13 22  1  0  0  0  0
 13 26  1  0  0  0  0
 14 20  2  0  0  0  0
 14 21  1  0  0  0  0
 14 27  1  0  0  0  0
 15 21  2  0  0  0  0
 15 31  1  0  0  0  0
 16 20  1  0  0  0  0
 16 32  1  0  0  0  0
 17 19  1  0  0  0  0
 17 33  1  0  0  0  0
 18 22  2  0  0  0  0
 18 34  1  0  0  0  0
 19 35  1  0  0  0  0
 20 36  1  0  0  0  0
 21 37  1  0  0  0  0
 22 38  1  0  0  0  0
 23 25  2  0  0  0  0
 23 39  1  0  0  0  0
 24 25  1  0  0  0  0
 24 40  1  0  0  0  0
 25 41  1  0  0  0  0
 26 42  1  0  0  0  0
 26 43  1  0  0  0  0
 26 44  1  0  0  0  0
 27 45  1  0  0  0  0
 27 46  1  0  0  0  0
 27 47  1  0  0  0  0
M  END
>  <$CLUSTER>
85

>  <INDEX>
565184

$$$$
Chembridge 7971670
  MOE2020           3D

 50 53  0  0  0  0  0  0  0  0999 V2000
   -4.8770    1.4450    2.2130 C   0  0  0  0  0  0  0  0  0  0  0  0
   -3.4500    0.2490    0.5960 N   0  0  0  0  0  0  0  0  0  0  0  0
   -3.5340    1.1680    1.7550 C   0  0  0  0  0  0  0  0  0  0  0  0
   -2.3320   -0.1900   -0.0460 C   0  0  0  0  0  0  0  0  0  0  0  0
   -5.9290    0.8670    1.5740 O   0  0  0  0  0  0  0  0  0  0  0  0
   -5.2850    2.2350    3.2350 C   0  0  0  0  0  0  0  0  0  0  0  0
   -7.0390    1.3090    2.2180 C   0  0  0  0  0  0  0  0  0  0  0  0
    5.1690   -0.5990   -1.1780 C   0  0  0  0  0  0  0  0  0  0  0  0
   -6.6970    2.1520    3.2480 C   0  0  0  0  0  0  0  0  0  0  0  0
   -1.1960    0.3250    0.5070 N   0  0  0  0  0  0  0  0  0  0  0  0
   -2.5450   -1.2300   -1.3320 S   0  0  0  0  0  0  0  0  0  0  0  0
    4.3930    0.0870   -0.2530 N   0  0  0  0  0  0  0  0  0  0  0  0
   -2.4870    1.6070    2.2200 O   0  0  0  0  0  0  0  0  0  0  0  0
    4.7920   -1.3410   -2.0790 O   0  0  0  0  0  0  0  0  0  0  0  0
    6.6380   -0.3310   -0.9630 C   0  0  0  0  0  0  0  0  0  0  0  0
    0.1820    0.1930    0.2270 C   0  0  0  0  0  0  0  0  0  0  0  0
    2.9780    0.0870   -0.1360 C   0  0  0  0  0  0  0  0  0  0  0  0
    2.1290   -0.6340   -0.9720 C   0  0  0  0  0  0  0  0  0  0  0  0
    0.7410   -0.5810   -0.7910 C   0  0  0  0  0  0  0  0  0  0  0  0
    1.0530    0.9160    1.0630 C   0  0  0  0  0  0  0  0  0  0  0  0
    2.4390    0.8650    0.8850 C   0  0  0  0  0  0  0  0  0  0  0  0
    7.5490   -1.0540   -1.9420 C   0  0  0  0  0  0  0  0  0  0  0  0
   -8.3570    0.9590    1.8860 C   0  0  0  0  0  0  0  0  0  0  0  0
   -7.7330    2.7140    4.0380 C   0  0  0  0  0  0  0  0  0  0  0  0
    7.8710   -0.4630   -3.1650 C   0  0  0  0  0  0  0  0  0  0  0  0
    7.9930   -2.3470   -1.6600 C   0  0  0  0  0  0  0  0  0  0  0  0
   -9.0610    2.3840    3.7320 C   0  0  0  0  0  0  0  0  0  0  0  0
   -9.3650    1.5220    2.6760 C   0  0  0  0  0  0  0  0  0  0  0  0
    8.7920   -3.0280   -2.5800 C   0  0  0  0  0  0  0  0  0  0  0  0
    8.6690   -1.1450   -4.0830 C   0  0  0  0  0  0  0  0  0  0  0  0
    9.1300   -2.4270   -3.7900 C   0  0  0  0  0  0  0  0  0  0  0  0
   -4.3300   -0.0940    0.2380 H   0  0  0  0  0  0  0  0  0  0  0  0
   -4.6610    2.8100    3.9030 H   0  0  0  0  0  0  0  0  0  0  0  0
   -1.3820    0.9360    1.2900 H   0  0  0  0  0  0  0  0  0  0  0  0
    4.8950    0.6530    0.4160 H   0  0  0  0  0  0  0  0  0  0  0  0
    6.9000   -0.6480    0.0470 H   0  0  0  0  0  0  0  0  0  0  0  0
    6.8090    0.7410   -1.0630 H   0  0  0  0  0  0  0  0  0  0  0  0
    2.5440   -1.2380   -1.7650 H   0  0  0  0  0  0  0  0  0  0  0  0
    0.0960   -1.1460   -1.4470 H   0  0  0  0  0  0  0  0  0  0  0  0
    0.6430    1.5220    1.8570 H   0  0  0  0  0  0  0  0  0  0  0  0
    3.0900    1.4280    1.5380 H   0  0  0  0  0  0  0  0  0  0  0  0
   -8.5810    0.2920    1.0660 H   0  0  0  0  0  0  0  0  0  0  0  0
   -7.5040    3.3810    4.8560 H   0  0  0  0  0  0  0  0  0  0  0  0
    7.5010    0.5240   -3.4010 H   0  0  0  0  0  0  0  0  0  0  0  0
    7.7180   -2.8210   -0.7290 H   0  0  0  0  0  0  0  0  0  0  0  0
   -9.8620    2.8030    4.3230 H   0  0  0  0  0  0  0  0  0  0  0  0
  -10.3980    1.2860    2.4650 H   0  0  0  0  0  0  0  0  0  0  0  0
    9.1480   -4.0220   -2.3530 H   0  0  0  0  0  0  0  0  0  0  0  0
    8.9300   -0.6790   -5.0220 H   0  0  0  0  0  0  0  0  0  0  0  0
    9.7490   -2.9540   -4.5010 H   0  0  0  0  0  0  0  0  0  0  0  0
  1  3  1  0  0  0  0
  1  5  1  0  0  0  0
  1  6  2  0  0  0  0
  2  3  1  0  0  0  0
  2  4  1  0  0  0  0
  2 32  1  0  0  0  0
  3 13  2  0  0  0  0
  4 10  1  0  0  0  0
  4 11  2  0  0  0  0
  5  7  1  0  0  0  0
  6  9  1  0  0  0  0
  6 33  1  0  0  0  0
  7  9  2  0  0  0  0
  7 23  1  0  0  0  0
  8 12  1  0  0  0  0
  8 14  2  0  0  0  0
  8 15  1  0  0  0  0
  9 24  1  0  0  0  0
 10 16  1  0  0  0  0
 10 34  1  0  0  0  0
 12 17  1  0  0  0  0
 12 35  1  0  0  0  0
 15 22  1  0  0  0  0
 15 36  1  0  0  0  0
 15 37  1  0  0  0  0
 16 19  2  0  0  0  0
 16 20  1  0  0  0  0
 17 18  2  0  0  0  0
 17 21  1  0  0  0  0
 18 19  1  0  0  0  0
 18 38  1  0  0  0  0
 19 39  1  0  0  0  0
 20 21  2  0  0  0  0
 20 40  1  0  0  0  0
 21 41  1  0  0  0  0
 22 25  1  0  0  0  0
 22 26  2  0  0  0  0
 23 28  2  0  0  0  0
 23 42  1  0  0  0  0
 24 27  2  0  0  0  0
 24 43  1  0  0  0  0
 25 30  2  0  0  0  0
 25 44  1  0  0  0  0
 26 29  1  0  0  0  0
 26 45  1  0  0  0  0
 27 28  1  0  0  0  0
 27 46  1  0  0  0  0
 28 47  1  0  0  0  0
 29 31  2  0  0  0  0
 29 48  1  0  0  0  0
 30 31  1  0  0  0  0
 30 49  1  0  0  0  0
 31 50  1  0  0  0  0
M  END
>  <$CLUSTER>
86

>  <INDEX>
97495

$$$$
Akos AKB-TOS-0863
  MOE2020           3D

 34 36  0  0  0  0  0  0  0  0999 V2000
    0.6350   -1.3980    0.0100 C   0  0  0  0  0  0  0  0  0  0  0  0
    0.1460   -0.3620    0.8090 N   0  0  0  0  0  0  0  0  0  0  0  0
    0.1740   -0.7180    2.1270 N   0  0  0  0  0  0  0  0  0  0  0  0
    1.0900   -2.3700    0.8820 C   0  0  0  0  0  0  0  0  0  0  0  0
    0.7760   -1.9020    2.1570 C   0  0  0  0  0  0  0  0  0  0  0  0
    0.6220   -1.4840   -1.4690 C   0  0  0  0  0  0  0  0  0  0  0  0
   -0.3460    0.9380    0.4750 C   0  0  0  0  0  0  0  0  0  0  0  0
    1.0600   -2.5830    3.3990 C   0  0  0  0  0  0  0  0  0  0  0  0
    0.7670   -2.7680   -1.8960 F   0  0  0  0  0  0  0  0  0  0  0  0
    1.6390   -0.7850   -2.0330 F   0  0  0  0  0  0  0  0  0  0  0  0
   -0.5380   -1.0400   -2.0150 F   0  0  0  0  0  0  0  0  0  0  0  0
   -0.1140    1.5340   -0.7670 C   0  0  0  0  0  0  0  0  0  0  0  0
   -1.0610    1.6640    1.4450 C   0  0  0  0  0  0  0  0  0  0  0  0
   -1.3310    3.5160   -0.0830 C   0  0  0  0  0  0  0  0  0  0  0  0
   -1.8190    4.7630   -0.3590 N   0  0  0  0  0  0  0  0  0  0  0  0
   -0.6090    2.8140   -1.0440 C   0  0  0  0  0  0  0  0  0  0  0  0
   -1.5540    2.9420    1.1630 C   0  0  0  0  0  0  0  0  0  0  0  0
    0.4890   -2.1510    4.6020 C   0  0  0  0  0  0  0  0  0  0  0  0
    1.9170   -3.6880    3.4040 C   0  0  0  0  0  0  0  0  0  0  0  0
    2.1890   -4.3590    4.6010 C   0  0  0  0  0  0  0  0  0  0  0  0
    0.7620   -2.8230    5.7960 C   0  0  0  0  0  0  0  0  0  0  0  0
    1.6110   -3.9270    5.7940 C   0  0  0  0  0  0  0  0  0  0  0  0
    1.5840   -3.2960    0.6290 H   0  0  0  0  0  0  0  0  0  0  0  0
    0.4510    1.0040   -1.5190 H   0  0  0  0  0  0  0  0  0  0  0  0
   -1.2310    1.2290    2.4190 H   0  0  0  0  0  0  0  0  0  0  0  0
   -2.3420    5.2670    0.3430 H   0  0  0  0  0  0  0  0  0  0  0  0
   -1.6570    5.1800   -1.2650 H   0  0  0  0  0  0  0  0  0  0  0  0
   -0.4290    3.2600   -2.0110 H   0  0  0  0  0  0  0  0  0  0  0  0
   -2.1090    3.4840    1.9150 H   0  0  0  0  0  0  0  0  0  0  0  0
   -0.1670   -1.2930    4.6070 H   0  0  0  0  0  0  0  0  0  0  0  0
    2.3690   -4.0240    2.4830 H   0  0  0  0  0  0  0  0  0  0  0  0
    2.8490   -5.2140    4.6010 H   0  0  0  0  0  0  0  0  0  0  0  0
    0.3150   -2.4870    6.7200 H   0  0  0  0  0  0  0  0  0  0  0  0
    1.8220   -4.4480    6.7160 H   0  0  0  0  0  0  0  0  0  0  0  0
  1  2  1  0  0  0  0
  1  4  2  0  0  0  0
  1  6  1  0  0  0  0
  2  3  1  0  0  0  0
  2  7  1  0  0  0  0
  3  5  2  0  0  0  0
  4  5  1  0  0  0  0
  4 23  1  0  0  0  0
  5  8  1  0  0  0  0
  6  9  1  0  0  0  0
  6 10  1  0  0  0  0
  6 11  1  0  0  0  0
  7 12  2  0  0  0  0
  7 13  1  0  0  0  0
  8 18  1  0  0  0  0
  8 19  2  0  0  0  0
 12 16  1  0  0  0  0
 12 24  1  0  0  0  0
 13 17  2  0  0  0  0
 13 25  1  0  0  0  0
 14 15  1  0  0  0  0
 14 16  2  0  0  0  0
 14 17  1  0  0  0  0
 15 26  1  0  0  0  0
 15 27  1  0  0  0  0
 16 28  1  0  0  0  0
 17 29  1  0  0  0  0
 18 21  2  0  0  0  0
 18 30  1  0  0  0  0
 19 20  1  0  0  0  0
 19 31  1  0  0  0  0
 20 22  2  0  0  0  0
 20 32  1  0  0  0  0
 21 22  1  0  0  0  0
 21 33  1  0  0  0  0
 22 34  1  0  0  0  0
M  END
>  <$CLUSTER>
87

>  <INDEX>
124750

$$$$
Bionet 5G-375S
  MOE2020           3D

 32 34  0  0  0  0  0  0  0  0999 V2000
   -0.9910    0.4600   -1.0280 C   0  0  0  0  0  0  0  0  0  0  0  0
   -1.7420    1.0810   -2.1340 C   0  0  0  0  0  0  0  0  0  0  0  0
    0.2840    0.7680   -0.7760 C   0  0  0  0  0  0  0  0  0  0  0  0
   -1.4850    2.3900   -2.3600 N   0  0  0  0  0  0  0  0  0  0  0  0
    0.9480    0.0640    0.3130 C   0  0  0  0  0  0  0  0  0  0  0  0
   -1.1570   -0.9820    1.0130 O   0  0  0  0  0  0  0  0  0  0  0  0
   -1.9880    3.3020   -3.2940 C   0  0  0  0  0  0  0  0  0  0  0  0
   -1.4990    4.6160   -3.2960 C   0  0  0  0  0  0  0  0  0  0  0  0
    0.2060   -0.7770    1.1550 C   0  0  0  0  0  0  0  0  0  0  0  0
   -1.7370   -0.5880   -0.2540 C   0  0  0  0  0  0  0  0  0  0  0  0
   -1.9650    5.5690   -4.1980 C   0  0  0  0  0  0  0  0  0  0  0  0
   -2.5830    0.4530   -2.7690 O   0  0  0  0  0  0  0  0  0  0  0  0
    2.3160    0.2370    0.5480 C   0  0  0  0  0  0  0  0  0  0  0  0
   -2.9690    2.9600   -4.2280 C   0  0  0  0  0  0  0  0  0  0  0  0
    0.8200   -1.4260    2.2260 C   0  0  0  0  0  0  0  0  0  0  0  0
   -2.9430    5.2150   -5.1260 C   0  0  0  0  0  0  0  0  0  0  0  0
    2.9330   -0.4250    1.6130 C   0  0  0  0  0  0  0  0  0  0  0  0
   -0.5570    4.9820   -2.4110 F   0  0  0  0  0  0  0  0  0  0  0  0
   -3.4420    3.9120   -5.1390 C   0  0  0  0  0  0  0  0  0  0  0  0
    2.1870   -1.2530    2.4520 C   0  0  0  0  0  0  0  0  0  0  0  0
   -3.3440    6.1730   -5.9580 F   0  0  0  0  0  0  0  0  0  0  0  0
    4.6020   -0.2100    1.8750 Cl  0  0  0  0  0  0  0  0  0  0  0  0
    0.8050    1.5130   -1.3590 H   0  0  0  0  0  0  0  0  0  0  0  0
   -0.7980    2.7850   -1.7340 H   0  0  0  0  0  0  0  0  0  0  0  0
   -1.8050   -1.4780   -0.8800 H   0  0  0  0  0  0  0  0  0  0  0  0
   -2.7380   -0.2060   -0.0570 H   0  0  0  0  0  0  0  0  0  0  0  0
   -1.5720    6.5750   -4.1790 H   0  0  0  0  0  0  0  0  0  0  0  0
    2.8960    0.8830   -0.0940 H   0  0  0  0  0  0  0  0  0  0  0  0
   -3.3650    1.9550   -4.2470 H   0  0  0  0  0  0  0  0  0  0  0  0
    0.2400   -2.0610    2.8790 H   0  0  0  0  0  0  0  0  0  0  0  0
   -4.1990    3.6360   -5.8580 H   0  0  0  0  0  0  0  0  0  0  0  0
    2.6670   -1.7600    3.2760 H   0  0  0  0  0  0  0  0  0  0  0  0
  1  2  1  0  0  0  0
  1  3  2  0  0  0  0
  1 10  1  0  0  0  0
  2  4  1  0  0  0  0
  2 12  2  0  0  0  0
  3  5  1  0  0  0  0
  3 23  1  0  0  0  0
  4  7  1  0  0  0  0
  4 24  1  0  0  0  0
  5  9  2  0  0  0  0
  5 13  1  0  0  0  0
  6  9  1  0  0  0  0
  6 10  1  0  0  0  0
  7  8  2  0  0  0  0
  7 14  1  0  0  0  0
  8 11  1  0  0  0  0
  8 18  1  0  0  0  0
  9 15  1  0  0  0  0
 10 25  1  0  0  0  0
 10 26  1  0  0  0  0
 11 16  2  0  0  0  0
 11 27  1  0  0  0  0
 13 17  2  0  0  0  0
 13 28  1  0  0  0  0
 14 19  2  0  0  0  0
 14 29  1  0  0  0  0
 15 20  2  0  0  0  0
 15 30  1  0  0  0  0
 16 19  1  0  0  0  0
 16 21  1  0  0  0  0
 17 20  1  0  0  0  0
 17 22  1  0  0  0  0
 19 31  1  0  0  0  0
 20 32  1  0  0  0  0
M  END
>  <$CLUSTER>
88

>  <INDEX>
55599

$$$$
Chemdiv 6228-2448
  MOE2020           3D

 41 42  0  0  0  0  0  0  0  0999 V2000
    3.8080    0.1820   -4.0630 C   0  0  0  0  0  0  0  0  0  0  0  0
    3.3720    0.0450   -2.7840 O   0  0  0  0  0  0  0  0  0  0  0  0
    4.9500   -0.6150   -4.4580 C   0  0  0  0  0  0  0  0  0  0  0  0
    3.0290    1.0870   -4.7450 C   0  0  0  0  0  0  0  0  0  0  0  0
    2.3200    0.8840   -2.6660 C   0  0  0  0  0  0  0  0  0  0  0  0
    2.0510    1.5350   -3.8260 C   0  0  0  0  0  0  0  0  0  0  0  0
   -1.6930   -0.8410    2.0670 C   0  0  0  0  0  0  0  0  0  0  0  0
    5.5670   -1.3970   -3.7470 O   0  0  0  0  0  0  0  0  0  0  0  0
   -1.8290   -1.6000    0.9070 C   0  0  0  0  0  0  0  0  0  0  0  0
   -0.7500    0.1840    2.1180 C   0  0  0  0  0  0  0  0  0  0  0  0
    0.6590   -0.1450   -1.3030 O   0  0  0  0  0  0  0  0  0  0  0  0
    1.6420    0.8900   -1.3070 C   0  0  0  0  0  0  0  0  0  0  0  0
   -0.0700   -0.3060   -0.1550 C   0  0  0  0  0  0  0  0  0  0  0  0
    5.2710   -0.3850   -5.7580 O   0  0  0  0  0  0  0  0  0  0  0  0
   -2.5930   -1.1500    3.2730 C   0  0  0  0  0  0  0  0  0  0  0  0
    0.0610    0.4520    1.0110 C   0  0  0  0  0  0  0  0  0  0  0  0
   -1.0200   -1.3330   -0.1990 C   0  0  0  0  0  0  0  0  0  0  0  0
    6.3870   -1.1000   -6.3100 C   0  0  0  0  0  0  0  0  0  0  0  0
   -3.4940    0.0380    3.6240 C   0  0  0  0  0  0  0  0  0  0  0  0
   -1.7740   -1.5910    4.4890 C   0  0  0  0  0  0  0  0  0  0  0  0
    6.5680   -0.6940   -7.7580 C   0  0  0  0  0  0  0  0  0  0  0  0
    3.1410    1.3940   -5.7740 H   0  0  0  0  0  0  0  0  0  0  0  0
    1.2580    2.2450   -4.0090 H   0  0  0  0  0  0  0  0  0  0  0  0
   -2.5600   -2.3940    0.8630 H   0  0  0  0  0  0  0  0  0  0  0  0
   -0.6450    0.7740    3.0170 H   0  0  0  0  0  0  0  0  0  0  0  0
    1.1650    1.8550   -1.1350 H   0  0  0  0  0  0  0  0  0  0  0  0
    2.3780    0.7050   -0.5250 H   0  0  0  0  0  0  0  0  0  0  0  0
   -3.2360   -1.9820    2.9850 H   0  0  0  0  0  0  0  0  0  0  0  0
    0.7910    1.2470    1.0580 H   0  0  0  0  0  0  0  0  0  0  0  0
   -1.1280   -1.9240   -1.0960 H   0  0  0  0  0  0  0  0  0  0  0  0
    6.1980   -2.1720   -6.2520 H   0  0  0  0  0  0  0  0  0  0  0  0
    7.2890   -0.8590   -5.7480 H   0  0  0  0  0  0  0  0  0  0  0  0
   -2.8770    0.8880    3.9170 H   0  0  0  0  0  0  0  0  0  0  0  0
   -4.1510   -0.2360    4.4500 H   0  0  0  0  0  0  0  0  0  0  0  0
   -4.0950    0.3070    2.7550 H   0  0  0  0  0  0  0  0  0  0  0  0
   -1.1190   -0.7770    4.8010 H   0  0  0  0  0  0  0  0  0  0  0  0
   -1.1720   -2.4610    4.2260 H   0  0  0  0  0  0  0  0  0  0  0  0
   -2.4470   -1.8490    5.3060 H   0  0  0  0  0  0  0  0  0  0  0  0
    5.6650   -0.9360   -8.3190 H   0  0  0  0  0  0  0  0  0  0  0  0
    7.4150   -1.2330   -8.1830 H   0  0  0  0  0  0  0  0  0  0  0  0
    6.7540    0.3780   -7.8140 H   0  0  0  0  0  0  0  0  0  0  0  0
  1  2  1  0  0  0  0
  1  3  1  0  0  0  0
  1  4  2  0  0  0  0
  2  5  1  0  0  0  0
  3  8  2  0  0  0  0
  3 14  1  0  0  0  0
  4  6  1  0  0  0  0
  4 22  1  0  0  0  0
  5  6  2  0  0  0  0
  5 12  1  0  0  0  0
  6 23  1  0  0  0  0
  7  9  1  0  0  0  0
  7 10  2  0  0  0  0
  7 15  1  0  0  0  0
  9 17  2  0  0  0  0
  9 24  1  0  0  0  0
 10 16  1  0  0  0  0
 10 25  1  0  0  0  0
 11 12  1  0  0  0  0
 11 13  1  0  0  0  0
 12 26  1  0  0  0  0
 12 27  1  0  0  0  0
 13 16  2  0  0  0  0
 13 17  1  0  0  0  0
 14 18  1  0  0  0  0
 15 19  1  0  0  0  0
 15 20  1  0  0  0  0
 15 28  1  0  0  0  0
 16 29  1  0  0  0  0
 17 30  1  0  0  0  0
 18 21  1  0  0  0  0
 18 31  1  0  0  0  0
 18 32  1  0  0  0  0
 19 33  1  0  0  0  0
 19 34  1  0  0  0  0
 19 35  1  0  0  0  0
 20 36  1  0  0  0  0
 20 37  1  0  0  0  0
 20 38  1  0  0  0  0
 21 39  1  0  0  0  0
 21 40  1  0  0  0  0
 21 41  1  0  0  0  0
M  END
>  <$CLUSTER>
89

>  <INDEX>
60553

$$$$
Lithuania 2945184
  MOE2020           3D

 32 34  0  0  0  0  0  0  0  0999 V2000
   -6.1620    0.6070    0.3020 C   0  0  0  0  0  0  0  0  0  0  0  0
   -0.0880    0.1720    0.1570 C   0  0  0  0  0  0  0  0  0  0  0  0
    1.0850    0.8290    0.8240 C   0  0  0  0  0  0  0  0  0  0  0  0
   -5.9160    1.5720    1.2180 O   0  0  0  0  0  0  0  0  0  0  0  0
   -5.0040   -0.1220   -0.3310 C   0  0  0  0  0  0  0  0  0  0  0  0
   -7.5120    0.4540    0.1020 C   0  0  0  0  0  0  0  0  0  0  0  0
   -3.7900    0.3440    0.1580 N   0  0  0  0  0  0  0  0  0  0  0  0
   -7.1240    2.0480    1.6110 C   0  0  0  0  0  0  0  0  0  0  0  0
   -8.1390    1.3940    0.9550 C   0  0  0  0  0  0  0  0  0  0  0  0
    0.1350   -0.8370   -0.7790 C   0  0  0  0  0  0  0  0  0  0  0  0
   -1.4150    0.5370    0.4420 C   0  0  0  0  0  0  0  0  0  0  0  0
   -2.4780   -0.1010   -0.2020 C   0  0  0  0  0  0  0  0  0  0  0  0
   -5.1960   -1.0020   -1.1640 O   0  0  0  0  0  0  0  0  0  0  0  0
    1.8590   -0.0490    1.5290 F   0  0  0  0  0  0  0  0  0  0  0  0
    1.9280    1.4410   -0.0590 F   0  0  0  0  0  0  0  0  0  0  0  0
    0.7330    1.8000    1.7190 F   0  0  0  0  0  0  0  0  0  0  0  0
   -0.9180   -1.4770   -1.4250 C   0  0  0  0  0  0  0  0  0  0  0  0
   -2.2300   -1.1070   -1.1350 C   0  0  0  0  0  0  0  0  0  0  0  0
    1.3900   -1.2080   -1.0720 F   0  0  0  0  0  0  0  0  0  0  0  0
   -7.3230    3.0660    2.5560 C   0  0  0  0  0  0  0  0  0  0  0  0
   -9.4770    1.7550    1.2370 C   0  0  0  0  0  0  0  0  0  0  0  0
   -9.7110    2.7690    2.1760 C   0  0  0  0  0  0  0  0  0  0  0  0
   -8.6520    3.4120    2.8230 C   0  0  0  0  0  0  0  0  0  0  0  0
   -7.9960   -0.2410   -0.5680 H   0  0  0  0  0  0  0  0  0  0  0  0
   -3.8390    1.0810    0.8460 H   0  0  0  0  0  0  0  0  0  0  0  0
   -1.6140    1.3160    1.1630 H   0  0  0  0  0  0  0  0  0  0  0  0
   -0.7200   -2.2560   -2.1470 H   0  0  0  0  0  0  0  0  0  0  0  0
   -3.0530   -1.5990   -1.6320 H   0  0  0  0  0  0  0  0  0  0  0  0
   -6.4960    3.5550    3.0500 H   0  0  0  0  0  0  0  0  0  0  0  0
  -10.2990    1.2610    0.7410 H   0  0  0  0  0  0  0  0  0  0  0  0
  -10.7260    3.0580    2.4030 H   0  0  0  0  0  0  0  0  0  0  0  0
   -8.8630    4.1900    3.5420 H   0  0  0  0  0  0  0  0  0  0  0  0
  1  4  1  0  0  0  0
  1  5  1  0  0  0  0
  1  6  2  0  0  0  0
  2  3  1  0  0  0  0
  2 10  1  0  0  0  0
  2 11  2  0  0  0  0
  3 14  1  0  0  0  0
  3 15  1  0  0  0  0
  3 16  1  0  0  0  0
  4  8  1  0  0  0  0
  5  7  1  0  0  0  0
  5 13  2  0  0  0  0
  6  9  1  0  0  0  0
  6 24  1  0  0  0  0
  7 12  1  0  0  0  0
  7 25  1  0  0  0  0
  8  9  2  0  0  0  0
  8 20  1  0  0  0  0
  9 21  1  0  0  0  0
 10 17  2  0  0  0  0
 10 19  1  0  0  0  0
 11 12  1  0  0  0  0
 11 26  1  0  0  0  0
 12 18  2  0  0  0  0
 17 18  1  0  0  0  0
 17 27  1  0  0  0  0
 18 28  1  0  0  0  0
 20 23  2  0  0  0  0
 20 29  1  0  0  0  0
 21 22  2  0  0  0  0
 21 30  1  0  0  0  0
 22 23  1  0  0  0  0
 22 31  1  0  0  0  0
 23 32  1  0  0  0  0
M  END
>  <$CLUSTER>
90

>  <INDEX>
232074

$$$$
Chembridge 6299855
  MOE2020           3D

 43 46  0  0  0  0  0  0  0  0999 V2000
    7.6360   -1.8840    2.4180 N   0  0  0  0  0  0  0  0  0  0  0  0
    6.3670   -2.3010    2.4360 N   0  0  0  0  0  0  0  0  0  0  0  0
    7.9330   -0.7120    1.8480 N   0  0  0  0  0  0  0  0  0  0  0  0
    5.7800   -1.2840    1.8060 C   0  0  0  0  0  0  0  0  0  0  0  0
    6.7260   -0.3300    1.4540 C   0  0  0  0  0  0  0  0  0  0  0  0
    0.2820    0.0870    0.2080 C   0  0  0  0  0  0  0  0  0  0  0  0
    4.0100    0.0640    0.8140 C   0  0  0  0  0  0  0  0  0  0  0  0
    4.4330   -1.0910    1.4890 C   0  0  0  0  0  0  0  0  0  0  0  0
   -1.6060    3.2940    0.5680 N   0  3  0  0  0  0  0  0  0  0  0  0
    1.5350   -0.4930    0.7050 C   0  0  0  0  0  0  0  0  0  0  0  0
    6.3260    0.8230    0.7840 C   0  0  0  0  0  0  0  0  0  0  0  0
    2.6490    0.2560    0.4980 N   0  0  0  0  0  0  0  0  0  0  0  0
    4.9750    1.0350    0.4560 C   0  0  0  0  0  0  0  0  0  0  0  0
   -0.0490    1.3910    0.6060 C   0  0  0  0  0  0  0  0  0  0  0  0
   -1.2440    1.9710    0.1810 C   0  0  0  0  0  0  0  0  0  0  0  0
   -0.5870   -0.6310   -0.6140 C   0  0  0  0  0  0  0  0  0  0  0  0
   -2.6740    3.8000    0.1840 O   0  5  0  0  0  0  0  0  0  0  0  0
    8.6870   -2.7000    3.0170 C   0  0  0  0  0  0  0  0  0  0  0  0
   -0.7900    3.8790    1.2990 O   0  0  0  0  0  0  0  0  0  0  0  0
    1.5540   -1.5730    1.2860 O   0  0  0  0  0  0  0  0  0  0  0  0
   -2.1130    1.2540   -0.6390 C   0  0  0  0  0  0  0  0  0  0  0  0
   -1.7860   -0.0430   -1.0370 C   0  0  0  0  0  0  0  0  0  0  0  0
   -0.2390   -2.2200   -1.1950 Cl  0  0  0  0  0  0  0  0  0  0  0  0
    4.6090    2.3030   -0.2700 C   0  0  0  0  0  0  0  0  0  0  0  0
    8.3680   -3.9270    3.6130 C   0  0  0  0  0  0  0  0  0  0  0  0
   10.0170   -2.2590    2.9960 C   0  0  0  0  0  0  0  0  0  0  0  0
   11.0180   -3.0450    3.5700 C   0  0  0  0  0  0  0  0  0  0  0  0
    9.3770   -4.7060    4.1840 C   0  0  0  0  0  0  0  0  0  0  0  0
   10.7000   -4.2660    4.1620 C   0  0  0  0  0  0  0  0  0  0  0  0
    3.7080   -1.8410    1.7670 H   0  0  0  0  0  0  0  0  0  0  0  0
    7.0630    1.5640    0.5130 H   0  0  0  0  0  0  0  0  0  0  0  0
    2.4650    1.1270    0.0210 H   0  0  0  0  0  0  0  0  0  0  0  0
    0.6230    1.9470    1.2430 H   0  0  0  0  0  0  0  0  0  0  0  0
   -3.0400    1.7020   -0.9670 H   0  0  0  0  0  0  0  0  0  0  0  0
   -2.4600   -0.5960   -1.6740 H   0  0  0  0  0  0  0  0  0  0  0  0
    3.5340    2.3210   -0.4510 H   0  0  0  0  0  0  0  0  0  0  0  0
    5.1390    2.3430   -1.2220 H   0  0  0  0  0  0  0  0  0  0  0  0
    4.8890    3.1630    0.3380 H   0  0  0  0  0  0  0  0  0  0  0  0
    7.3440   -4.2700    3.6310 H   0  0  0  0  0  0  0  0  0  0  0  0
   10.2670   -1.3140    2.5370 H   0  0  0  0  0  0  0  0  0  0  0  0
   12.0430   -2.7050    3.5550 H   0  0  0  0  0  0  0  0  0  0  0  0
    9.1320   -5.6520    4.6440 H   0  0  0  0  0  0  0  0  0  0  0  0
   11.4780   -4.8710    4.6040 H   0  0  0  0  0  0  0  0  0  0  0  0
  1  2  1  0  0  0  0
  1  3  1  0  0  0  0
  1 18  1  0  0  0  0
  2  4  2  0  0  0  0
  3  5  2  0  0  0  0
  4  5  1  0  0  0  0
  4  8  1  0  0  0  0
  5 11  1  0  0  0  0
  6 10  1  0  0  0  0
  6 14  2  0  0  0  0
  6 16  1  0  0  0  0
  7  8  2  0  0  0  0
  7 12  1  0  0  0  0
  7 13  1  0  0  0  0
  8 30  1  0  0  0  0
  9 15  1  0  0  0  0
  9 17  1  0  0  0  0
  9 19  2  0  0  0  0
 10 12  1  0  0  0  0
 10 20  2  0  0  0  0
 11 13  2  0  0  0  0
 11 31  1  0  0  0  0
 12 32  1  0  0  0  0
 13 24  1  0  0  0  0
 14 15  1  0  0  0  0
 14 33  1  0  0  0  0
 15 21  2  0  0  0  0
 16 22  2  0  0  0  0
 16 23  1  0  0  0  0
 18 25  1  0  0  0  0
 18 26  2  0  0  0  0
 21 22  1  0  0  0  0
 21 34  1  0  0  0  0
 22 35  1  0  0  0  0
 24 36  1  0  0  0  0
 24 37  1  0  0  0  0
 24 38  1  0  0  0  0
 25 28  2  0  0  0  0
 25 39  1  0  0  0  0
 26 27  1  0  0  0  0
 26 40  1  0  0  0  0
 27 29  2  0  0  0  0
 27 41  1  0  0  0  0
 28 29  1  0  0  0  0
 28 42  1  0  0  0  0
 29 43  1  0  0  0  0
M  CHG  1   9   1
M  CHG  1  17  -1
M  END
>  <$CLUSTER>
91

>  <INDEX>
61029

$$$$
Tripos 1554-03007
  MOE2020           3D

 34 35  0  0  0  0  0  0  0  0999 V2000
    0.7130    0.6750    0.2720 S   0  0  0  0  0  0  0  0  0  0  0  0
   -0.7380   -0.1800    0.3130 N   0  0  0  0  0  0  0  0  0  0  0  0
    0.6240    1.5020   -1.3140 C   0  0  0  0  0  0  0  0  0  0  0  0
   -2.3380   -3.3830   -0.8660 C   0  0  0  0  0  0  0  0  0  0  0  0
   -2.1100   -2.1180   -0.1940 C   0  0  0  0  0  0  0  0  0  0  0  0
    0.6480    1.6750    1.3260 O   0  0  0  0  0  0  0  0  0  0  0  0
    1.8020   -0.2870    0.2480 O   0  0  0  0  0  0  0  0  0  0  0  0
   -3.4180   -4.2040   -0.5210 C   0  0  0  0  0  0  0  0  0  0  0  0
   -0.9400   -1.2660   -0.6510 C   0  0  0  0  0  0  0  0  0  0  0  0
   -3.0490   -1.7670    0.7710 C   0  0  0  0  0  0  0  0  0  0  0  0
    1.1520    0.8630   -2.4310 C   0  0  0  0  0  0  0  0  0  0  0  0
    0.0950    2.7810   -1.3850 C   0  0  0  0  0  0  0  0  0  0  0  0
   -4.3090   -3.8060    0.4730 C   0  0  0  0  0  0  0  0  0  0  0  0
   -1.2950   -3.9420   -2.1290 Cl  0  0  0  0  0  0  0  0  0  0  0  0
    0.5770    2.8030   -3.7540 C   0  0  0  0  0  0  0  0  0  0  0  0
   -4.1270   -2.5860    1.1160 C   0  0  0  0  0  0  0  0  0  0  0  0
    1.1200    1.5210   -3.6620 C   0  0  0  0  0  0  0  0  0  0  0  0
    0.0650    3.4330   -2.6180 C   0  0  0  0  0  0  0  0  0  0  0  0
   -5.3050   -4.6490    0.7460 F   0  0  0  0  0  0  0  0  0  0  0  0
    0.4970    3.5550   -4.9130 O   0  0  0  0  0  0  0  0  0  0  0  0
    1.0060    2.9630   -6.1030 C   0  0  0  0  0  0  0  0  0  0  0  0
   -1.4820    0.4880    0.1690 H   0  0  0  0  0  0  0  0  0  0  0  0
   -3.5610   -5.1480   -1.0260 H   0  0  0  0  0  0  0  0  0  0  0  0
   -0.0400   -1.8790   -0.7050 H   0  0  0  0  0  0  0  0  0  0  0  0
   -1.1540   -0.8470   -1.6340 H   0  0  0  0  0  0  0  0  0  0  0  0
   -2.9400   -0.8190    1.2760 H   0  0  0  0  0  0  0  0  0  0  0  0
    1.5790   -0.1250   -2.3470 H   0  0  0  0  0  0  0  0  0  0  0  0
   -0.2880    3.2660   -0.4990 H   0  0  0  0  0  0  0  0  0  0  0  0
   -4.8200   -2.2720    1.8830 H   0  0  0  0  0  0  0  0  0  0  0  0
    1.5160    1.0380   -4.5430 H   0  0  0  0  0  0  0  0  0  0  0  0
   -0.3540    4.4250   -2.6940 H   0  0  0  0  0  0  0  0  0  0  0  0
    0.8820    3.6560   -6.9350 H   0  0  0  0  0  0  0  0  0  0  0  0
    0.4610    2.0420   -6.3130 H   0  0  0  0  0  0  0  0  0  0  0  0
    2.0640    2.7370   -5.9730 H   0  0  0  0  0  0  0  0  0  0  0  0
  1  2  1  0  0  0  0
  1  3  1  0  0  0  0
  1  6  2  0  0  0  0
  1  7  2  0  0  0  0
  2  9  1  0  0  0  0
  2 22  1  0  0  0  0
  3 11  2  0  0  0  0
  3 12  1  0  0  0  0
  4  5  2  0  0  0  0
  4  8  1  0  0  0  0
  4 14  1  0  0  0  0
  5  9  1  0  0  0  0
  5 10  1  0  0  0  0
  8 13  2  0  0  0  0
  8 23  1  0  0  0  0
  9 24  1  0  0  0  0
  9 25  1  0  0  0  0
 10 16  2  0  0  0  0
 10 26  1  0  0  0  0
 11 17  1  0  0  0  0
 11 27  1  0  0  0  0
 12 18  2  0  0  0  0
 12 28  1  0  0  0  0
 13 16  1  0  0  0  0
 13 19  1  0  0  0  0
 15 17  2  0  0  0  0
 15 18  1  0  0  0  0
 15 20  1  0  0  0  0
 16 29  1  0  0  0  0
 17 30  1  0  0  0  0
 18 31  1  0  0  0  0
 20 21  1  0  0  0  0
 21 32  1  0  0  0  0
 21 33  1  0  0  0  0
 21 34  1  0  0  0  0
M  END
>  <$CLUSTER>
92

>  <INDEX>
466465

$$$$
Nanosyn NS24355
  MOE2020           3D

 44 45  0  0  1  0  0  0  0  0999 V2000
   -1.2830   -0.8850    0.4580 C   0  0  0  0  0  0  0  0  0  0  0  0
    1.0490   -0.1130    1.1630 C   0  0  0  0  0  0  0  0  0  0  0  0
   -0.2840    0.2760    0.5110 C   0  0  3  0  0  0  0  0  0  0  0  0
    1.2900   -1.3790    1.5660 C   0  0  0  0  0  0  0  0  0  0  0  0
   -0.9500   -2.1200    0.8900 C   0  0  0  0  0  0  0  0  0  0  0  0
    0.3130   -2.3480    1.4110 N   0  0  0  0  0  0  0  0  0  0  0  0
   -0.0660    0.8830   -0.8740 C   0  0  0  0  0  0  0  0  0  0  0  0
    2.0780    0.9330    1.3110 C   0  0  0  0  0  0  0  0  0  0  0  0
   -2.6200   -0.6220   -0.1080 C   0  0  0  0  0  0  0  0  0  0  0  0
    0.4990    0.1330   -1.9190 C   0  0  0  0  0  0  0  0  0  0  0  0
    0.6910    0.7040   -3.1780 C   0  0  0  0  0  0  0  0  0  0  0  0
    0.3220    2.0270   -3.4090 C   0  0  0  0  0  0  0  0  0  0  0  0
   -0.4330    2.2150   -1.1210 C   0  0  0  0  0  0  0  0  0  0  0  0
    3.2390    0.8400    0.9430 O   0  0  0  0  0  0  0  0  0  0  0  0
   -3.1560   -1.2780   -0.9900 O   0  0  0  0  0  0  0  0  0  0  0  0
   -0.2400    2.7820   -2.3820 C   0  0  0  0  0  0  0  0  0  0  0  0
    1.3770   -0.2080   -4.4420 Cl  0  0  0  0  0  0  0  0  0  0  0  0
    1.5470    2.0260    1.9090 O   0  0  0  0  0  0  0  0  0  0  0  0
   -3.1700    0.4640    0.4830 O   0  0  0  0  0  0  0  0  0  0  0  0
   -1.8650   -3.3160    0.8980 C   0  0  0  0  0  0  0  0  0  0  0  0
    2.5540   -1.8530    2.2330 C   0  0  0  0  0  0  0  0  0  0  0  0
    0.5630    2.7080   -4.9510 Cl  0  0  0  0  0  0  0  0  0  0  0  0
   -4.4810    0.8540    0.0380 C   0  0  0  0  0  0  0  0  0  0  0  0
    2.4290    3.1360    2.1220 C   0  0  0  0  0  0  0  0  0  0  0  0
   -4.9180    2.0790    0.8150 C   0  0  0  0  0  0  0  0  0  0  0  0
   -0.7300    1.0370    1.1510 H   0  0  0  0  0  0  0  0  0  0  0  0
    0.5380   -3.2900    1.6990 H   0  0  0  0  0  0  0  0  0  0  0  0
    0.7870   -0.8940   -1.7470 H   0  0  0  0  0  0  0  0  0  0  0  0
   -0.8680    2.8060   -0.3290 H   0  0  0  0  0  0  0  0  0  0  0  0
   -0.5270    3.8080   -2.5620 H   0  0  0  0  0  0  0  0  0  0  0  0
   -1.3320   -4.1780    1.2990 H   0  0  0  0  0  0  0  0  0  0  0  0
   -2.1910   -3.5310   -0.1200 H   0  0  0  0  0  0  0  0  0  0  0  0
   -2.7340   -3.1040    1.5200 H   0  0  0  0  0  0  0  0  0  0  0  0
    2.4740   -2.9190    2.4480 H   0  0  0  0  0  0  0  0  0  0  0  0
    2.7010   -1.3050    3.1640 H   0  0  0  0  0  0  0  0  0  0  0  0
    3.4020   -1.6790    1.5710 H   0  0  0  0  0  0  0  0  0  0  0  0
   -5.1840    0.0400    0.2130 H   0  0  0  0  0  0  0  0  0  0  0  0
   -4.4520    1.0870   -1.0260 H   0  0  0  0  0  0  0  0  0  0  0  0
    1.8840    3.9460    2.6070 H   0  0  0  0  0  0  0  0  0  0  0  0
    2.8160    3.4820    1.1630 H   0  0  0  0  0  0  0  0  0  0  0  0
    3.2580    2.8250    2.7570 H   0  0  0  0  0  0  0  0  0  0  0  0
   -4.9460    1.8430    1.8790 H   0  0  0  0  0  0  0  0  0  0  0  0
   -5.9110    2.3840    0.4840 H   0  0  0  0  0  0  0  0  0  0  0  0
   -4.2120    2.8910    0.6410 H   0  0  0  0  0  0  0  0  0  0  0  0
  1  3  1  0  0  0  0
  1  5  2  0  0  0  0
  1  9  1  0  0  0  0
  2  3  1  0  0  0  0
  2  4  2  0  0  0  0
  2  8  1  0  0  0  0
  3  7  1  0  0  0  0
  3 26  1  0  0  0  0
  4  6  1  0  0  0  0
  4 21  1  0  0  0  0
  5  6  1  0  0  0  0
  5 20  1  0  0  0  0
  6 27  1  0  0  0  0
  7 10  1  0  0  0  0
  7 13  2  0  0  0  0
  8 14  2  0  0  0  0
  8 18  1  0  0  0  0
  9 15  2  0  0  0  0
  9 19  1  0  0  0  0
 10 11  2  0  0  0  0
 10 28  1  0  0  0  0
 11 12  1  0  0  0  0
 11 17  1  0  0  0  0
 12 16  2  0  0  0  0
 12 22  1  0  0  0  0
 13 16  1  0  0  0  0
 13 29  1  0  0  0  0
 16 30  1  0  0  0  0
 18 24  1  0  0  0  0
 19 23  1  0  0  0  0
 20 31  1  0  0  0  0
 20 32  1  0  0  0  0
 20 33  1  0  0  0  0
 21 34  1  0  0  0  0
 21 35  1  0  0  0  0
 21 36  1  0  0  0  0
 23 25  1  0  0  0  0
 23 37  1  0  0  0  0
 23 38  1  0  0  0  0
 24 39  1  0  0  0  0
 24 40  1  0  0  0  0
 24 41  1  0  0  0  0
 25 42  1  0  0  0  0
 25 43  1  0  0  0  0
 25 44  1  0  0  0  0
M  END
>  <$CLUSTER>
93

>  <INDEX>
563339

$$$$
Asinex BAS 02903336
  MOE2020           3D

 47 50  0  0  0  0  0  0  0  0999 V2000
    0.2610   -2.1340    0.3860 S   0  0  0  0  0  0  0  0  0  0  0  0
    0.2590   -0.5190    0.9820 N   0  0  0  0  0  0  0  0  0  0  0  0
   -0.3480   -0.2630    2.3230 C   0  0  0  0  0  0  0  0  0  0  0  0
    0.4180    0.8290    3.0540 C   0  0  0  0  0  0  0  0  0  0  0  0
    3.1910    3.0310    5.7780 C   0  0  0  0  0  0  0  0  0  0  0  0
    0.7270   -3.0220    1.4350 O   0  0  0  0  0  0  0  0  0  0  0  0
    0.8640   -2.1850   -0.9330 O   0  0  0  0  0  0  0  0  0  0  0  0
   -1.4840   -2.4370    0.1900 C   0  0  0  0  0  0  0  0  0  0  0  0
    0.1640    0.5270   -0.0120 C   0  0  0  0  0  0  0  0  0  0  0  0
    2.2970    2.4200    4.8940 C   0  0  0  0  0  0  0  0  0  0  0  0
    1.3100    0.3760    3.9800 N   0  0  0  0  0  0  0  0  0  0  0  0
    3.9880    2.2590    6.6210 C   0  0  0  0  0  0  0  0  0  0  0  0
    3.4040    4.3480    5.9370 O   0  0  0  0  0  0  0  0  0  0  0  0
    4.7820    3.0030    7.3960 O   0  0  0  0  0  0  0  0  0  0  0  0
    2.1910    1.0260    4.8480 C   0  0  0  0  0  0  0  0  0  0  0  0
    4.4180    4.3350    6.9690 C   0  0  0  0  0  0  0  0  0  0  0  0
    0.2610    2.0340    2.8430 O   0  0  0  0  0  0  0  0  0  0  0  0
    3.8910    0.8720    6.5820 C   0  0  0  0  0  0  0  0  0  0  0  0
    1.3310    0.9320   -0.6700 C   0  0  0  0  0  0  0  0  0  0  0  0
   -1.0670    1.0810   -0.3800 C   0  0  0  0  0  0  0  0  0  0  0  0
    2.9980    0.2590    5.7010 C   0  0  0  0  0  0  0  0  0  0  0  0
    0.0450    2.4710   -2.0170 C   0  0  0  0  0  0  0  0  0  0  0  0
    1.2710    1.9070   -1.6650 C   0  0  0  0  0  0  0  0  0  0  0  0
   -1.1220    2.0560   -1.3770 C   0  0  0  0  0  0  0  0  0  0  0  0
   -0.0110    3.6650   -3.2300 Cl  0  0  0  0  0  0  0  0  0  0  0  0
   -2.2340   -2.9620    1.2520 C   0  0  0  0  0  0  0  0  0  0  0  0
   -2.1020   -2.1930   -1.0470 C   0  0  0  0  0  0  0  0  0  0  0  0
   -3.4620   -2.4580   -1.2100 C   0  0  0  0  0  0  0  0  0  0  0  0
   -3.5940   -3.2260    1.0810 C   0  0  0  0  0  0  0  0  0  0  0  0
   -4.2060   -2.9740   -0.1480 C   0  0  0  0  0  0  0  0  0  0  0  0
   -0.3160   -1.1800    2.9120 H   0  0  0  0  0  0  0  0  0  0  0  0
   -1.3840    0.0500    2.1940 H   0  0  0  0  0  0  0  0  0  0  0  0
    1.6850    3.0270    4.2430 H   0  0  0  0  0  0  0  0  0  0  0  0
    1.3400   -0.6310    4.0530 H   0  0  0  0  0  0  0  0  0  0  0  0
    4.0410    4.8840    7.8320 H   0  0  0  0  0  0  0  0  0  0  0  0
    5.3090    4.8310    6.5850 H   0  0  0  0  0  0  0  0  0  0  0  0
    4.5070    0.2690    7.2330 H   0  0  0  0  0  0  0  0  0  0  0  0
    2.2800    0.4880   -0.4070 H   0  0  0  0  0  0  0  0  0  0  0  0
   -1.9740    0.7540    0.1070 H   0  0  0  0  0  0  0  0  0  0  0  0
    2.9280   -0.8180    5.6760 H   0  0  0  0  0  0  0  0  0  0  0  0
    2.1750    2.2260   -2.1630 H   0  0  0  0  0  0  0  0  0  0  0  0
   -2.0710    2.4900   -1.6540 H   0  0  0  0  0  0  0  0  0  0  0  0
   -1.7600   -3.1620    2.2020 H   0  0  0  0  0  0  0  0  0  0  0  0
   -1.5250   -1.8010   -1.8710 H   0  0  0  0  0  0  0  0  0  0  0  0
   -3.9400   -2.2640   -2.1590 H   0  0  0  0  0  0  0  0  0  0  0  0
   -4.1730   -3.6260    1.9000 H   0  0  0  0  0  0  0  0  0  0  0  0
   -5.2580   -3.1790   -0.2770 H   0  0  0  0  0  0  0  0  0  0  0  0
  1  2  1  0  0  0  0
  1  6  2  0  0  0  0
  1  7  2  0  0  0  0
  1  8  1  0  0  0  0
  2  3  1  0  0  0  0
  2  9  1  0  0  0  0
  3  4  1  0  0  0  0
  3 31  1  0  0  0  0
  3 32  1  0  0  0  0
  4 11  1  0  0  0  0
  4 17  2  0  0  0  0
  5 10  2  0  0  0  0
  5 12  1  0  0  0  0
  5 13  1  0  0  0  0
  8 26  1  0  0  0  0
  8 27  2  0  0  0  0
  9 19  2  0  0  0  0
  9 20  1  0  0  0  0
 10 15  1  0  0  0  0
 10 33  1  0  0  0  0
 11 15  1  0  0  0  0
 11 34  1  0  0  0  0
 12 14  1  0  0  0  0
 12 18  2  0  0  0  0
 13 16  1  0  0  0  0
 14 16  1  0  0  0  0
 15 21  2  0  0  0  0
 16 35  1  0  0  0  0
 16 36  1  0  0  0  0
 18 21  1  0  0  0  0
 18 37  1  0  0  0  0
 19 23  1  0  0  0  0
 19 38  1  0  0  0  0
 20 24  2  0  0  0  0
 20 39  1  0  0  0  0
 21 40  1  0  0  0  0
 22 23  2  0  0  0  0
 22 24  1  0  0  0  0
 22 25  1  0  0  0  0
 23 41  1  0  0  0  0
 24 42  1  0  0  0  0
 26 29  2  0  0  0  0
 26 43  1  0  0  0  0
 27 28  1  0  0  0  0
 27 44  1  0  0  0  0
 28 30  2  0  0  0  0
 28 45  1  0  0  0  0
 29 30  1  0  0  0  0
 29 46  1  0  0  0  0
 30 47  1  0  0  0  0
M  END
>  <$CLUSTER>
94

>  <INDEX>
178545

$$$$
Chembridge 6457638
  MOE2020           3D

 37 38  0  0  0  0  0  0  0  0999 V2000
    0.3420   -0.1550    0.8150 C   0  0  0  0  0  0  0  0  0  0  0  0
   -0.4480   -0.4110   -0.3230 C   0  0  0  0  0  0  0  0  0  0  0  0
    0.6590    1.1660    1.1530 C   0  0  0  0  0  0  0  0  0  0  0  0
   -0.9070    0.6590   -1.1010 C   0  0  0  0  0  0  0  0  0  0  0  0
    0.1960    2.2240    0.3700 C   0  0  0  0  0  0  0  0  0  0  0  0
   -3.5310   -7.6260   -4.1670 C   0  0  0  0  0  0  0  0  0  0  0  0
   -2.7970   -5.0530   -3.3310 C   0  0  0  0  0  0  0  0  0  0  0  0
   -0.5840    1.9710   -0.7530 C   0  0  0  0  0  0  0  0  0  0  0  0
    0.7500   -1.2600    1.5210 O   0  0  0  0  0  0  0  0  0  0  0  0
   -3.8340   -8.8830   -4.4930 F   0  0  0  0  0  0  0  0  0  0  0  0
   -3.9510   -6.5130   -4.8910 C   0  0  0  0  0  0  0  0  0  0  0  0
   -2.7480   -7.4560   -3.0270 C   0  0  0  0  0  0  0  0  0  0  0  0
   -3.5840   -5.2320   -4.4740 C   0  0  0  0  0  0  0  0  0  0  0  0
   -0.7120   -1.7340   -0.5830 O   0  0  0  0  0  0  0  0  0  0  0  0
   -2.3800   -6.1740   -2.6090 C   0  0  0  0  0  0  0  0  0  0  0  0
   -2.5030   -3.7610   -3.0220 O   0  0  0  0  0  0  0  0  0  0  0  0
   -1.5070   -2.0290   -1.7240 C   0  0  0  0  0  0  0  0  0  0  0  0
    0.5420    3.6300    0.7430 C   0  0  0  0  0  0  0  0  0  0  0  0
   -1.7120   -3.4920   -1.8850 C   0  0  0  0  0  0  0  0  0  0  0  0
    1.5500   -1.0380    2.6760 C   0  0  0  0  0  0  0  0  0  0  0  0
    1.2650    1.3670    2.0240 H   0  0  0  0  0  0  0  0  0  0  0  0
   -1.5130    0.4680   -1.9740 H   0  0  0  0  0  0  0  0  0  0  0  0
   -0.9410    2.7920   -1.3570 H   0  0  0  0  0  0  0  0  0  0  0  0
   -4.5600   -6.6410   -5.7740 H   0  0  0  0  0  0  0  0  0  0  0  0
   -2.4240   -8.3190   -2.4640 H   0  0  0  0  0  0  0  0  0  0  0  0
   -3.9110   -4.3710   -5.0390 H   0  0  0  0  0  0  0  0  0  0  0  0
   -1.7720   -6.0500   -1.7250 H   0  0  0  0  0  0  0  0  0  0  0  0
   -1.0080   -1.6420   -2.6120 H   0  0  0  0  0  0  0  0  0  0  0  0
   -2.4780   -1.5460   -1.6130 H   0  0  0  0  0  0  0  0  0  0  0  0
    1.1550    3.6260    1.6450 H   0  0  0  0  0  0  0  0  0  0  0  0
   -0.3730    4.1930    0.9280 H   0  0  0  0  0  0  0  0  0  0  0  0
    1.0970    4.0960   -0.0710 H   0  0  0  0  0  0  0  0  0  0  0  0
   -0.7440   -3.9790   -1.9990 H   0  0  0  0  0  0  0  0  0  0  0  0
   -2.2130   -3.8830   -0.9990 H   0  0  0  0  0  0  0  0  0  0  0  0
    1.7990   -1.9950    3.1350 H   0  0  0  0  0  0  0  0  0  0  0  0
    0.9970   -0.4270    3.3890 H   0  0  0  0  0  0  0  0  0  0  0  0
    2.4670   -0.5220    2.3890 H   0  0  0  0  0  0  0  0  0  0  0  0
  1  2  2  0  0  0  0
  1  3  1  0  0  0  0
  1  9  1  0  0  0  0
  2  4  1  0  0  0  0
  2 14  1  0  0  0  0
  3  5  2  0  0  0  0
  3 21  1  0  0  0  0
  4  8  2  0  0  0  0
  4 22  1  0  0  0  0
  5  8  1  0  0  0  0
  5 18  1  0  0  0  0
  6 10  1  0  0  0  0
  6 11  2  0  0  0  0
  6 12  1  0  0  0  0
  7 13  2  0  0  0  0
  7 15  1  0  0  0  0
  7 16  1  0  0  0  0
  8 23  1  0  0  0  0
  9 20  1  0  0  0  0
 11 13  1  0  0  0  0
 11 24  1  0  0  0  0
 12 15  2  0  0  0  0
 12 25  1  0  0  0  0
 13 26  1  0  0  0  0
 14 17  1  0  0  0  0
 15 27  1  0  0  0  0
 16 19  1  0  0  0  0
 17 19  1  0  0  0  0
 17 28  1  0  0  0  0
 17 29  1  0  0  0  0
 18 30  1  0  0  0  0
 18 31  1  0  0  0  0
 18 32  1  0  0  0  0
 19 33  1  0  0  0  0
 19 34  1  0  0  0  0
 20 35  1  0  0  0  0
 20 36  1  0  0  0  0
 20 37  1  0  0  0  0
M  END
>  <$CLUSTER>
95

>  <INDEX>
63467

$$$$
Chembridge 6441506
  MOE2020           3D

 35 36  0  0  0  0  0  0  0  0999 V2000
    0.3620    0.6510   -0.0820 N   0  3  0  0  0  0  0  0  0  0  0  0
   -0.2920   -0.6470    0.0810 C   0  0  0  0  0  0  0  0  0  0  0  0
    1.6040    0.6970   -0.1070 O   0  5  0  0  0  0  0  0  0  0  0  0
   -0.3420   -6.8040   -0.5810 C   0  0  0  0  0  0  0  0  0  0  0  0
   -0.3660    1.6520   -0.1880 O   0  0  0  0  0  0  0  0  0  0  0  0
    0.3790   -6.3800    0.4820 N   0  0  0  0  0  0  0  0  0  0  0  0
   -0.6140   -7.9840   -0.7740 O   0  0  0  0  0  0  0  0  0  0  0  0
    0.4780   -1.7400    0.1970 C   0  0  0  0  0  0  0  0  0  0  0  0
   -1.7850   -0.6130    0.1000 C   0  0  0  0  0  0  0  0  0  0  0  0
   -2.5820   -5.2180   -1.0370 S   0  0  0  0  0  0  0  0  0  0  0  0
    1.0310   -7.0720    1.5170 C   0  0  0  0  0  0  0  0  0  0  0  0
    2.3500   -8.3780    3.6250 C   0  0  0  0  0  0  0  0  0  0  0  0
   -0.2030   -2.9880    0.3560 C   0  0  0  0  0  0  0  0  0  0  0  0
   -2.3530   -1.8850    0.2600 C   0  0  0  0  0  0  0  0  0  0  0  0
   -1.6060   -3.0680    0.3940 C   0  0  0  0  0  0  0  0  0  0  0  0
    2.9460   -9.0770    4.5910 F   0  0  0  0  0  0  0  0  0  0  0  0
    1.7470   -6.3410    2.4770 C   0  0  0  0  0  0  0  0  0  0  0  0
    0.9850   -8.4660    1.6250 C   0  0  0  0  0  0  0  0  0  0  0  0
    2.4020   -6.9910    3.5250 C   0  0  0  0  0  0  0  0  0  0  0  0
    1.6420   -9.1130    2.6770 C   0  0  0  0  0  0  0  0  0  0  0  0
   -0.8780   -5.6830   -1.4610 C   0  0  0  0  0  0  0  0  0  0  0  0
   -2.2960   -4.4000    0.5560 C   0  0  0  0  0  0  0  0  0  0  0  0
    0.4650   -5.3760    0.5440 H   0  0  0  0  0  0  0  0  0  0  0  0
    1.5560   -1.6810    0.1720 H   0  0  0  0  0  0  0  0  0  0  0  0
   -2.3640    0.2930    0.0010 H   0  0  0  0  0  0  0  0  0  0  0  0
    0.3770   -3.8940    0.4490 H   0  0  0  0  0  0  0  0  0  0  0  0
   -3.4300   -1.9600    0.2820 H   0  0  0  0  0  0  0  0  0  0  0  0
    1.7920   -5.2640    2.4050 H   0  0  0  0  0  0  0  0  0  0  0  0
    0.4400   -9.0450    0.8940 H   0  0  0  0  0  0  0  0  0  0  0  0
    2.9490   -6.4170    4.2580 H   0  0  0  0  0  0  0  0  0  0  0  0
    1.6000  -10.1890    2.7550 H   0  0  0  0  0  0  0  0  0  0  0  0
   -0.8540   -6.0120   -2.5000 H   0  0  0  0  0  0  0  0  0  0  0  0
   -0.2380   -4.8090   -1.3420 H   0  0  0  0  0  0  0  0  0  0  0  0
   -1.6730   -5.0450    1.1760 H   0  0  0  0  0  0  0  0  0  0  0  0
   -3.2560   -4.2410    1.0470 H   0  0  0  0  0  0  0  0  0  0  0  0
  1  2  1  0  0  0  0
  1  3  1  0  0  0  0
  1  5  2  0  0  0  0
  2  8  2  0  0  0  0
  2  9  1  0  0  0  0
  4  6  1  0  0  0  0
  4  7  2  0  0  0  0
  4 21  1  0  0  0  0
  6 11  1  0  0  0  0
  6 23  1  0  0  0  0
  8 13  1  0  0  0  0
  8 24  1  0  0  0  0
  9 14  2  0  0  0  0
  9 25  1  0  0  0  0
 10 21  1  0  0  0  0
 10 22  1  0  0  0  0
 11 17  2  0  0  0  0
 11 18  1  0  0  0  0
 12 16  1  0  0  0  0
 12 19  2  0  0  0  0
 12 20  1  0  0  0  0
 13 15  2  0  0  0  0
 13 26  1  0  0  0  0
 14 15  1  0  0  0  0
 14 27  1  0  0  0  0
 15 22  1  0  0  0  0
 17 19  1  0  0  0  0
 17 28  1  0  0  0  0
 18 20  2  0  0  0  0
 18 29  1  0  0  0  0
 19 30  1  0  0  0  0
 20 31  1  0  0  0  0
 21 32  1  0  0  0  0
 21 33  1  0  0  0  0
 22 34  1  0  0  0  0
 22 35  1  0  0  0  0
M  CHG  1   1   1
M  CHG  1   3  -1
M  END
>  <$CLUSTER>
96

>  <INDEX>
63221

$$$$
BiotechCA 65484P
  MOE2020           3D

 35 36  0  0  0  0  0  0  0  0999 V2000
   -0.8990   -0.2590    0.0060 C   0  0  0  0  0  0  0  0  0  0  0  0
    0.2240    0.0070   -0.7580 N   0  0  0  0  0  0  0  0  0  0  0  0
   -3.9320   -2.6190   -0.4880 C   0  0  0  0  0  0  0  0  0  0  0  0
   -1.1560    0.2400    1.0980 O   0  0  0  0  0  0  0  0  0  0  0  0
   -4.9100   -2.2820   -1.4420 C   0  0  0  0  0  0  0  0  0  0  0  0
   -3.0400   -1.5970    0.1760 C   0  0  0  0  0  0  0  0  0  0  0  0
   -1.8020   -1.2760   -0.6390 C   0  0  0  0  0  0  0  0  0  0  0  0
    1.2490    0.9480   -0.3470 C   0  0  0  0  0  0  0  0  0  0  0  0
   -5.1980   -0.6430   -1.9120 Cl  0  0  0  0  0  0  0  0  0  0  0  0
    2.2830    0.2880    0.5460 C   0  0  0  0  0  0  0  0  0  0  0  0
   -3.7520   -3.9790   -0.1780 C   0  0  0  0  0  0  0  0  0  0  0  0
   -5.6930   -3.2720   -2.0470 C   0  0  0  0  0  0  0  0  0  0  0  0
    3.5130   -0.1410    0.0210 C   0  0  0  0  0  0  0  0  0  0  0  0
    2.0230    0.0890    1.9120 C   0  0  0  0  0  0  0  0  0  0  0  0
   -4.5340   -4.9640   -0.7810 C   0  0  0  0  0  0  0  0  0  0  0  0
   -5.5040   -4.6120   -1.7150 C   0  0  0  0  0  0  0  0  0  0  0  0
    2.9770   -0.5120    2.7370 C   0  0  0  0  0  0  0  0  0  0  0  0
    4.4660   -0.7420    0.8490 C   0  0  0  0  0  0  0  0  0  0  0  0
    4.1990   -0.9250    2.2060 C   0  0  0  0  0  0  0  0  0  0  0  0
    0.3350   -0.4740   -1.6390 H   0  0  0  0  0  0  0  0  0  0  0  0
   -2.7270   -1.9860    1.1450 H   0  0  0  0  0  0  0  0  0  0  0  0
   -3.6100   -0.6790    0.3190 H   0  0  0  0  0  0  0  0  0  0  0  0
   -1.2360   -2.1970   -0.7820 H   0  0  0  0  0  0  0  0  0  0  0  0
   -2.1190   -0.8900   -1.6080 H   0  0  0  0  0  0  0  0  0  0  0  0
    0.7800    1.7670    0.1990 H   0  0  0  0  0  0  0  0  0  0  0  0
    1.7460    1.3410   -1.2340 H   0  0  0  0  0  0  0  0  0  0  0  0
   -2.9960   -4.2650    0.5380 H   0  0  0  0  0  0  0  0  0  0  0  0
   -6.4450   -2.9970   -2.7720 H   0  0  0  0  0  0  0  0  0  0  0  0
    3.7240   -0.0060   -1.0290 H   0  0  0  0  0  0  0  0  0  0  0  0
    1.0770    0.4030    2.3280 H   0  0  0  0  0  0  0  0  0  0  0  0
   -4.3870   -6.0020   -0.5230 H   0  0  0  0  0  0  0  0  0  0  0  0
   -6.1090   -5.3760   -2.1810 H   0  0  0  0  0  0  0  0  0  0  0  0
    2.7680   -0.6570    3.7870 H   0  0  0  0  0  0  0  0  0  0  0  0
    5.4110   -1.0650    0.4370 H   0  0  0  0  0  0  0  0  0  0  0  0
    4.9380   -1.3860    2.8450 H   0  0  0  0  0  0  0  0  0  0  0  0
  1  2  1  0  0  0  0
  1  4  2  0  0  0  0
  1  7  1  0  0  0  0
  2  8  1  0  0  0  0
  2 20  1  0  0  0  0
  3  5  2  0  0  0  0
  3  6  1  0  0  0  0
  3 11  1  0  0  0  0
  5  9  1  0  0  0  0
  5 12  1  0  0  0  0
  6  7  1  0  0  0  0
  6 21  1  0  0  0  0
  6 22  1  0  0  0  0
  7 23  1  0  0  0  0
  7 24  1  0  0  0  0
  8 10  1  0  0  0  0
  8 25  1  0  0  0  0
  8 26  1  0  0  0  0
 10 13  1  0  0  0  0
 10 14  2  0  0  0  0
 11 15  2  0  0  0  0
 11 27  1  0  0  0  0
 12 16  2  0  0  0  0
 12 28  1  0  0  0  0
 13 18  2  0  0  0  0
 13 29  1  0  0  0  0
 14 17  1  0  0  0  0
 14 30  1  0  0  0  0
 15 16  1  0  0  0  0
 15 31  1  0  0  0  0
 16 32  1  0  0  0  0
 17 19  2  0  0  0  0
 17 33  1  0  0  0  0
 18 19  1  0  0  0  0
 18 34  1  0  0  0  0
 19 35  1  0  0  0  0
M  END
>  <$CLUSTER>
97

>  <INDEX>
64932

$$$$
Chembridge 6527077
  MOE2020           3D

 51 53  0  0  0  0  0  0  0  0999 V2000
   -1.4990    0.2470   -2.2780 C   0  0  0  0  0  0  0  0  0  0  0  0
   -2.3490   -0.7440   -2.5780 N   0  0  0  0  0  0  0  0  0  0  0  0
   -1.1550    1.2030   -3.1520 N   0  0  0  0  0  0  0  0  0  0  0  0
   -2.5720    0.1730   -4.7640 N   0  0  0  0  0  0  0  0  0  0  0  0
   -2.8460   -0.7270   -3.8190 C   0  0  0  0  0  0  0  0  0  0  0  0
   -1.7170    1.1130   -4.3610 C   0  0  0  0  0  0  0  0  0  0  0  0
   -0.9820    0.2830   -1.0830 N   0  0  0  0  0  0  0  0  0  0  0  0
    0.9820   -0.2830    1.0830 N   0  0  0  0  0  0  0  0  0  0  0  0
    1.5070   -0.2450    2.2990 C   0  0  0  0  0  0  0  0  0  0  0  0
   -0.0330    1.3000   -0.5920 C   0  0  0  0  0  0  0  0  0  0  0  0
   -1.2520   -0.6880   -0.0050 C   0  0  0  0  0  0  0  0  0  0  0  0
    1.2520    0.6880    0.0050 C   0  0  0  0  0  0  0  0  0  0  0  0
    0.0330   -1.3000    0.5920 C   0  0  0  0  0  0  0  0  0  0  0  0
    1.1980   -1.2130    3.2770 C   0  0  0  0  0  0  0  0  0  0  0  0
    2.4100    0.7630    2.6940 C   0  0  0  0  0  0  0  0  0  0  0  0
   -3.7350   -1.7130   -4.2180 O   0  0  0  0  0  0  0  0  0  0  0  0
   -1.4190    2.0590   -5.3310 O   0  0  0  0  0  0  0  0  0  0  0  0
    2.6370   -0.1660    4.9150 C   0  0  0  0  0  0  0  0  0  0  0  0
    1.7520   -1.1750    4.5640 C   0  0  0  0  0  0  0  0  0  0  0  0
    2.9670    0.8050    3.9790 C   0  0  0  0  0  0  0  0  0  0  0  0
    3.2420   -0.0200    6.1290 O   0  0  0  0  0  0  0  0  0  0  0  0
   -0.4990    3.0680   -4.8920 C   0  0  0  0  0  0  0  0  0  0  0  0
   -4.0240   -2.6790   -3.1980 C   0  0  0  0  0  0  0  0  0  0  0  0
    2.9340   -0.9930    7.1210 C   0  0  0  0  0  0  0  0  0  0  0  0
   -0.2680    4.0260   -6.0460 C   0  0  0  0  0  0  0  0  0  0  0  0
   -5.0020   -3.6880   -3.7710 C   0  0  0  0  0  0  0  0  0  0  0  0
   -0.5260    1.8920    0.1790 H   0  0  0  0  0  0  0  0  0  0  0  0
    0.2450    1.9470   -1.4240 H   0  0  0  0  0  0  0  0  0  0  0  0
   -1.8650   -1.4940   -0.4090 H   0  0  0  0  0  0  0  0  0  0  0  0
   -1.7970   -0.1810    0.7910 H   0  0  0  0  0  0  0  0  0  0  0  0
    1.7970    0.1810   -0.7910 H   0  0  0  0  0  0  0  0  0  0  0  0
    1.8650    1.4940    0.4090 H   0  0  0  0  0  0  0  0  0  0  0  0
   -0.2450   -1.9470    1.4240 H   0  0  0  0  0  0  0  0  0  0  0  0
    0.5260   -1.8920   -0.1790 H   0  0  0  0  0  0  0  0  0  0  0  0
    0.5130   -2.0090    3.0260 H   0  0  0  0  0  0  0  0  0  0  0  0
    2.6820    1.5290    1.9820 H   0  0  0  0  0  0  0  0  0  0  0  0
    1.4890   -1.9340    5.2850 H   0  0  0  0  0  0  0  0  0  0  0  0
    3.6550    1.5950    4.2420 H   0  0  0  0  0  0  0  0  0  0  0  0
    0.4440    2.6070   -4.6000 H   0  0  0  0  0  0  0  0  0  0  0  0
   -0.9190    3.6070   -4.0420 H   0  0  0  0  0  0  0  0  0  0  0  0
   -4.4670   -2.1840   -2.3340 H   0  0  0  0  0  0  0  0  0  0  0  0
   -3.1060   -3.1840   -2.8960 H   0  0  0  0  0  0  0  0  0  0  0  0
    3.4780   -0.7630    8.0370 H   0  0  0  0  0  0  0  0  0  0  0  0
    3.2250   -1.9810    6.7640 H   0  0  0  0  0  0  0  0  0  0  0  0
    1.8630   -0.9800    7.3220 H   0  0  0  0  0  0  0  0  0  0  0  0
    0.1510    3.4810   -6.8920 H   0  0  0  0  0  0  0  0  0  0  0  0
    0.4260    4.8070   -5.7360 H   0  0  0  0  0  0  0  0  0  0  0  0
   -1.2160    4.4780   -6.3390 H   0  0  0  0  0  0  0  0  0  0  0  0
   -5.9170   -3.1770   -4.0710 H   0  0  0  0  0  0  0  0  0  0  0  0
   -5.2360   -4.4380   -3.0150 H   0  0  0  0  0  0  0  0  0  0  0  0
   -4.5560   -4.1740   -4.6390 H   0  0  0  0  0  0  0  0  0  0  0  0
  1  2  2  0  0  0  0
  1  3  1  0  0  0  0
  1  7  1  0  0  0  0
  2  5  1  0  0  0  0
  3  6  2  0  0  0  0
  4  5  2  0  0  0  0
  4  6  1  0  0  0  0
  5 16  1  0  0  0  0
  6 17  1  0  0  0  0
  7 10  1  0  0  0  0
  7 11  1  0  0  0  0
  8  9  1  0  0  0  0
  8 12  1  0  0  0  0
  8 13  1  0  0  0  0
  9 14  2  0  0  0  0
  9 15  1  0  0  0  0
 10 12  1  0  0  0  0
 10 27  1  0  0  0  0
 10 28  1  0  0  0  0
 11 13  1  0  0  0  0
 11 29  1  0  0  0  0
 11 30  1  0  0  0  0
 12 31  1  0  0  0  0
 12 32  1  0  0  0  0
 13 33  1  0  0  0  0
 13 34  1  0  0  0  0
 14 19  1  0  0  0  0
 14 35  1  0  0  0  0
 15 20  2  0  0  0  0
 15 36  1  0  0  0  0
 16 23  1  0  0  0  0
 17 22  1  0  0  0  0
 18 19  2  0  0  0  0
 18 20  1  0  0  0  0
 18 21  1  0  0  0  0
 19 37  1  0  0  0  0
 20 38  1  0  0  0  0
 21 24  1  0  0  0  0
 22 25  1  0  0  0  0
 22 39  1  0  0  0  0
 22 40  1  0  0  0  0
 23 26  1  0  0  0  0
 23 41  1  0  0  0  0
 23 42  1  0  0  0  0
 24 43  1  0  0  0  0
 24 44  1  0  0  0  0
 24 45  1  0  0  0  0
 25 46  1  0  0  0  0
 25 47  1  0  0  0  0
 25 48  1  0  0  0  0
 26 49  1  0  0  0  0
 26 50  1  0  0  0  0
 26 51  1  0  0  0  0
M  END
>  <$CLUSTER>
98

>  <INDEX>
64698

$$$$
Chembridge 6576045
  MOE2020           3D

 47 50  0  0  0  0  0  0  0  0999 V2000
   -0.0030    0.3020    0.5670 N   0  0  0  0  0  0  0  0  0  0  0  0
    0.8470    0.4500   -0.5060 C   0  0  0  0  0  0  0  0  0  0  0  0
    0.7060    0.0210   -1.7110 N   0  0  0  0  0  0  0  0  0  0  0  0
   -1.4170   -0.9980   -0.9370 C   0  0  0  0  0  0  0  0  0  0  0  0
   -1.1810   -0.4130    0.4330 C   0  0  0  0  0  0  0  0  0  0  0  0
    2.2670    1.3660   -0.0260 S   0  0  0  0  0  0  0  0  0  0  0  0
   -0.4440   -0.6720   -2.0330 C   0  0  0  0  0  0  0  0  0  0  0  0
    0.3910    0.8940    1.7590 N   0  0  0  0  0  0  0  0  0  0  0  0
    1.5400    1.4750    1.5730 C   0  0  0  0  0  0  0  0  0  0  0  0
   -2.4980   -1.7780   -1.1080 C   0  0  0  0  0  0  0  0  0  0  0  0
   -2.0310   -0.5810    1.4040 N   0  0  0  0  0  0  0  0  0  0  0  0
   -3.9430   -4.4240   -3.3550 C   0  0  0  0  0  0  0  0  0  0  0  0
   -0.6600   -0.9930   -3.2000 O   0  0  0  0  0  0  0  0  0  0  0  0
   -2.9330   -2.5160   -2.3350 C   0  0  0  0  0  0  0  0  0  0  0  0
   -3.7280   -3.8720   -4.6150 C   0  0  0  0  0  0  0  0  0  0  0  0
   -3.5360   -3.7340   -2.2120 C   0  0  0  0  0  0  0  0  0  0  0  0
    2.2810    2.2030    2.6550 C   0  0  0  0  0  0  0  0  0  0  0  0
   -3.1130   -2.6280   -4.7340 C   0  0  0  0  0  0  0  0  0  0  0  0
   -2.7050   -1.9370   -3.5910 C   0  0  0  0  0  0  0  0  0  0  0  0
   -4.5660   -5.6680   -3.3530 O   0  0  0  0  0  0  0  0  0  0  0  0
   -4.1250   -4.5460   -5.7330 O   0  0  0  0  0  0  0  0  0  0  0  0
    3.1330    1.2390    3.4650 C   0  0  0  0  0  0  0  0  0  0  0  0
   -4.8040   -6.2720   -2.0870 C   0  0  0  0  0  0  0  0  0  0  0  0
    4.4580    0.9670    3.0900 C   0  0  0  0  0  0  0  0  0  0  0  0
    2.6090    0.6040    4.6010 C   0  0  0  0  0  0  0  0  0  0  0  0
   -5.4730   -7.5880   -2.2350 C   0  0  0  0  0  0  0  0  0  0  0  0
    5.2360    0.0760    3.8300 C   0  0  0  0  0  0  0  0  0  0  0  0
    3.3900   -0.2860    5.3390 C   0  0  0  0  0  0  0  0  0  0  0  0
    4.7020   -0.5490    4.9540 C   0  0  0  0  0  0  0  0  0  0  0  0
   -3.1380   -1.8870   -0.2450 H   0  0  0  0  0  0  0  0  0  0  0  0
   -1.8460   -0.1800    2.3120 H   0  0  0  0  0  0  0  0  0  0  0  0
   -3.6980   -4.1620   -1.2340 H   0  0  0  0  0  0  0  0  0  0  0  0
    2.9250    2.9570    2.2030 H   0  0  0  0  0  0  0  0  0  0  0  0
    1.5630    2.6880    3.3160 H   0  0  0  0  0  0  0  0  0  0  0  0
   -2.9510   -2.1970   -5.7110 H   0  0  0  0  0  0  0  0  0  0  0  0
   -2.2230   -0.9740   -3.6730 H   0  0  0  0  0  0  0  0  0  0  0  0
   -4.5450   -5.3940   -5.5680 H   0  0  0  0  0  0  0  0  0  0  0  0
   -3.8510   -6.4130   -1.5760 H   0  0  0  0  0  0  0  0  0  0  0  0
   -5.4400   -5.6150   -1.4940 H   0  0  0  0  0  0  0  0  0  0  0  0
    4.8790    1.4510    2.2210 H   0  0  0  0  0  0  0  0  0  0  0  0
    1.5930    0.8060    4.9070 H   0  0  0  0  0  0  0  0  0  0  0  0
   -4.8430   -8.2510   -2.8270 H   0  0  0  0  0  0  0  0  0  0  0  0
   -6.4310   -7.4540   -2.7360 H   0  0  0  0  0  0  0  0  0  0  0  0
   -5.6360   -8.0250   -1.2500 H   0  0  0  0  0  0  0  0  0  0  0  0
    6.2530   -0.1290    3.5310 H   0  0  0  0  0  0  0  0  0  0  0  0
    2.9760   -0.7720    6.2100 H   0  0  0  0  0  0  0  0  0  0  0  0
    5.3050   -1.2380    5.5270 H   0  0  0  0  0  0  0  0  0  0  0  0
  1  2  1  0  0  0  0
  1  5  1  0  0  0  0
  1  8  1  0  0  0  0
  2  3  2  0  0  0  0
  2  6  1  0  0  0  0
  3  7  1  0  0  0  0
  4  5  1  0  0  0  0
  4  7  1  0  0  0  0
  4 10  2  0  0  0  0
  5 11  2  0  0  0  0
  6  9  1  0  0  0  0
  7 13  2  0  0  0  0
  8  9  2  0  0  0  0
  9 17  1  0  0  0  0
 10 14  1  0  0  0  0
 10 30  1  0  0  0  0
 11 31  1  0  0  0  0
 12 15  1  0  0  0  0
 12 16  2  0  0  0  0
 12 20  1  0  0  0  0
 14 16  1  0  0  0  0
 14 19  2  0  0  0  0
 15 18  2  0  0  0  0
 15 21  1  0  0  0  0
 16 32  1  0  0  0  0
 17 22  1  0  0  0  0
 17 33  1  0  0  0  0
 17 34  1  0  0  0  0
 18 19  1  0  0  0  0
 18 35  1  0  0  0  0
 19 36  1  0  0  0  0
 20 23  1  0  0  0  0
 21 37  1  0  0  0  0
 22 24  2  0  0  0  0
 22 25  1  0  0  0  0
 23 26  1  0  0  0  0
 23 38  1  0  0  0  0
 23 39  1  0  0  0  0
 24 27  1  0  0  0  0
 24 40  1  0  0  0  0
 25 28  2  0  0  0  0
 25 41  1  0  0  0  0
 26 42  1  0  0  0  0
 26 43  1  0  0  0  0
 26 44  1  0  0  0  0
 27 29  2  0  0  0  0
 27 45  1  0  0  0  0
 28 29  1  0  0  0  0
 28 46  1  0  0  0  0
 29 47  1  0  0  0  0
M  END
>  <$CLUSTER>
99

>  <INDEX>
65244

$$$$
Nanosyn NS30611
  MOE2020           3D

 47 50  0  0  0  0  0  0  0  0999 V2000
   -0.2170   -0.2150    0.0570 N   0  0  0  0  0  0  0  0  0  0  0  0
    1.9070    0.3360   -1.0420 C   0  0  0  0  0  0  0  0  0  0  0  0
    0.8800    0.6540   -0.0090 C   0  0  0  0  0  0  0  0  0  0  0  0
   -0.2900   -1.3960   -0.6910 C   0  0  0  0  0  0  0  0  0  0  0  0
    0.7990   -1.7160   -1.4440 N   0  0  0  0  0  0  0  0  0  0  0  0
    3.9000    1.2720   -2.3540 C   0  0  0  0  0  0  0  0  0  0  0  0
    1.9190   -0.9860   -1.6720 C   0  0  0  0  0  0  0  0  0  0  0  0
    5.0660    1.8840   -2.1920 N   0  0  0  0  0  0  0  0  0  0  0  0
    2.8040    1.2960   -1.3340 C   0  0  0  0  0  0  0  0  0  0  0  0
   -1.3140    0.1200    0.9400 C   0  0  0  0  0  0  0  0  0  0  0  0
    3.8060    0.5970   -3.5440 C   0  0  0  0  0  0  0  0  0  0  0  0
    5.7190    1.7950   -3.4360 C   0  0  0  0  0  0  0  0  0  0  0  0
    4.9610    0.9650   -4.2660 C   0  0  0  0  0  0  0  0  0  0  0  0
    5.6260    2.5250   -1.0610 C   0  0  0  0  0  0  0  0  0  0  0  0
   -1.7140    1.4560    1.1270 C   0  0  0  0  0  0  0  0  0  0  0  0
   -1.2690   -2.1390   -0.7560 O   0  0  0  0  0  0  0  0  0  0  0  0
    1.0670    1.6110    0.7460 O   0  0  0  0  0  0  0  0  0  0  0  0
    2.8510   -1.4230   -2.3400 O   0  0  0  0  0  0  0  0  0  0  0  0
    6.4460    3.4210   -1.2200 O   0  0  0  0  0  0  0  0  0  0  0  0
   -2.7740    1.7810    1.9780 C   0  0  0  0  0  0  0  0  0  0  0  0
   -2.0180   -0.8770    1.6410 C   0  0  0  0  0  0  0  0  0  0  0  0
    6.9470    2.3230   -3.8870 C   0  0  0  0  0  0  0  0  0  0  0  0
   -3.0460    3.1320    2.0550 O   0  0  0  0  0  0  0  0  0  0  0  0
    5.4170    0.6700   -5.5680 C   0  0  0  0  0  0  0  0  0  0  0  0
    5.2170    2.0240    0.2910 C   0  0  0  0  0  0  0  0  0  0  0  0
   -3.0770   -0.5500    2.4930 C   0  0  0  0  0  0  0  0  0  0  0  0
   -3.4550    0.7780    2.6610 C   0  0  0  0  0  0  0  0  0  0  0  0
   -4.1160    3.5200    2.9090 C   0  0  0  0  0  0  0  0  0  0  0  0
    7.3800    2.0220   -5.1820 C   0  0  0  0  0  0  0  0  0  0  0  0
    6.6260    1.2060   -6.0150 C   0  0  0  0  0  0  0  0  0  0  0  0
    0.7680   -2.6200   -1.8940 H   0  0  0  0  0  0  0  0  0  0  0  0
    2.7220    2.2040   -0.7560 H   0  0  0  0  0  0  0  0  0  0  0  0
    3.0190   -0.0710   -3.8600 H   0  0  0  0  0  0  0  0  0  0  0  0
   -1.1930    2.2440    0.6040 H   0  0  0  0  0  0  0  0  0  0  0  0
   -1.7350   -1.9120    1.5190 H   0  0  0  0  0  0  0  0  0  0  0  0
    7.5440    2.9500   -3.2420 H   0  0  0  0  0  0  0  0  0  0  0  0
    4.8340    0.0330   -6.2160 H   0  0  0  0  0  0  0  0  0  0  0  0
    4.4800    1.2290    0.1760 H   0  0  0  0  0  0  0  0  0  0  0  0
    4.7830    2.8420    0.8660 H   0  0  0  0  0  0  0  0  0  0  0  0
    6.0910    1.6360    0.8140 H   0  0  0  0  0  0  0  0  0  0  0  0
   -3.6030   -1.3310    3.0220 H   0  0  0  0  0  0  0  0  0  0  0  0
   -4.2740    1.0300    3.3190 H   0  0  0  0  0  0  0  0  0  0  0  0
   -4.2280    4.6040    2.8820 H   0  0  0  0  0  0  0  0  0  0  0  0
   -3.9000    3.2030    3.9290 H   0  0  0  0  0  0  0  0  0  0  0  0
   -5.0400    3.0510    2.5700 H   0  0  0  0  0  0  0  0  0  0  0  0
    8.3140    2.4300   -5.5390 H   0  0  0  0  0  0  0  0  0  0  0  0
    6.9760    0.9850   -7.0120 H   0  0  0  0  0  0  0  0  0  0  0  0
  1  3  1  0  0  0  0
  1  4  1  0  0  0  0
  1 10  1  0  0  0  0
  2  3  1  0  0  0  0
  2  7  1  0  0  0  0
  2  9  2  0  0  0  0
  3 17  2  0  0  0  0
  4  5  1  0  0  0  0
  4 16  2  0  0  0  0
  5  7  1  0  0  0  0
  5 31  1  0  0  0  0
  6  8  1  0  0  0  0
  6  9  1  0  0  0  0
  6 11  2  0  0  0  0
  7 18  2  0  0  0  0
  8 12  1  0  0  0  0
  8 14  1  0  0  0  0
  9 32  1  0  0  0  0
 10 15  2  0  0  0  0
 10 21  1  0  0  0  0
 11 13  1  0  0  0  0
 11 33  1  0  0  0  0
 12 13  1  0  0  0  0
 12 22  2  0  0  0  0
 13 24  2  0  0  0  0
 14 19  2  0  0  0  0
 14 25  1  0  0  0  0
 15 20  1  0  0  0  0
 15 34  1  0  0  0  0
 20 23  1  0  0  0  0
 20 27  2  0  0  0  0
 21 26  2  0  0  0  0
 21 35  1  0  0  0  0
 22 29  1  0  0  0  0
 22 36  1  0  0  0  0
 23 28  1  0  0  0  0
 24 30  1  0  0  0  0
 24 37  1  0  0  0  0
 25 38  1  0  0  0  0
 25 39  1  0  0  0  0
 25 40  1  0  0  0  0
 26 27  1  0  0  0  0
 26 41  1  0  0  0  0
 27 42  1  0  0  0  0
 28 43  1  0  0  0  0
 28 44  1  0  0  0  0
 28 45  1  0  0  0  0
 29 30  2  0  0  0  0
 29 46  1  0  0  0  0
 30 47  1  0  0  0  0
M  END
>  <$CLUSTER>
100

>  <INDEX>
563900

$$$$
Chembridge 6720926
  MOE2020           3D

 44 47  0  0  0  0  0  0  0  0999 V2000
    0.3240    2.2220   -0.0820 N   0  0  0  0  0  0  0  0  0  0  0  0
    1.3850    2.9720    0.4640 C   0  0  0  0  0  0  0  0  0  0  0  0
    0.1730    0.8280   -0.0380 C   0  0  0  0  0  0  0  0  0  0  0  0
   -1.6270    1.7390   -1.0990 N   0  0  0  0  0  0  0  0  0  0  0  0
   -0.7910    2.6880   -0.7550 C   0  0  0  0  0  0  0  0  0  0  0  0
   -1.0400    0.5870   -0.6680 C   0  0  0  0  0  0  0  0  0  0  0  0
    1.3000    4.3160    0.1960 N   0  0  0  0  0  0  0  0  0  0  0  0
    2.2680    2.4250    1.1090 O   0  0  0  0  0  0  0  0  0  0  0  0
    1.1040   -0.1080    0.5930 C   0  0  0  0  0  0  0  0  0  0  0  0
   -1.6740   -0.7000   -0.8570 C   0  0  0  0  0  0  0  0  0  0  0  0
    1.9370    6.8250   -1.0660 O   0  0  0  0  0  0  0  0  0  0  0  0
    0.3100    4.9740   -0.6550 C   0  0  0  0  0  0  0  0  0  0  0  0
    2.2740    5.2290    0.8270 C   0  0  0  0  0  0  0  0  0  0  0  0
    1.0380    5.8800   -1.6840 C   0  0  0  0  0  0  0  0  0  0  0  0
    2.9130    6.1200   -0.2690 C   0  0  0  0  0  0  0  0  0  0  0  0
    0.7780   -0.7100    1.8150 C   0  0  0  0  0  0  0  0  0  0  0  0
    2.3150   -0.4350   -0.0330 C   0  0  0  0  0  0  0  0  0  0  0  0
   -0.9820   -1.7810   -1.4190 C   0  0  0  0  0  0  0  0  0  0  0  0
   -3.0180   -0.8650   -0.4930 C   0  0  0  0  0  0  0  0  0  0  0  0
   -3.6510   -2.0970   -0.6700 C   0  0  0  0  0  0  0  0  0  0  0  0
   -1.6190   -3.0110   -1.5950 C   0  0  0  0  0  0  0  0  0  0  0  0
    3.1900   -1.3450    0.5630 C   0  0  0  0  0  0  0  0  0  0  0  0
    1.6560   -1.6190    2.4070 C   0  0  0  0  0  0  0  0  0  0  0  0
   -2.9520   -3.1700   -1.2190 C   0  0  0  0  0  0  0  0  0  0  0  0
    2.8610   -1.9360    1.7820 C   0  0  0  0  0  0  0  0  0  0  0  0
   -0.9570    3.7320   -0.9760 H   0  0  0  0  0  0  0  0  0  0  0  0
   -0.3530    5.5820   -0.0390 H   0  0  0  0  0  0  0  0  0  0  0  0
   -0.2750    4.2210   -1.1830 H   0  0  0  0  0  0  0  0  0  0  0  0
    3.0510    4.6480    1.3240 H   0  0  0  0  0  0  0  0  0  0  0  0
    1.7660    5.8570    1.5580 H   0  0  0  0  0  0  0  0  0  0  0  0
    1.6110    5.2460   -2.3600 H   0  0  0  0  0  0  0  0  0  0  0  0
    0.2890    6.4330   -2.2510 H   0  0  0  0  0  0  0  0  0  0  0  0
    3.5610    6.8520    0.2130 H   0  0  0  0  0  0  0  0  0  0  0  0
    3.5070    5.4870   -0.9280 H   0  0  0  0  0  0  0  0  0  0  0  0
   -0.1560   -0.4700    2.3010 H   0  0  0  0  0  0  0  0  0  0  0  0
    2.5720    0.0180   -0.9790 H   0  0  0  0  0  0  0  0  0  0  0  0
    0.0490   -1.6620   -1.7180 H   0  0  0  0  0  0  0  0  0  0  0  0
   -3.5670   -0.0350   -0.0730 H   0  0  0  0  0  0  0  0  0  0  0  0
   -4.6840   -2.2180   -0.3810 H   0  0  0  0  0  0  0  0  0  0  0  0
   -1.0780   -3.8410   -2.0240 H   0  0  0  0  0  0  0  0  0  0  0  0
    4.1230   -1.5920    0.0790 H   0  0  0  0  0  0  0  0  0  0  0  0
    1.4010   -2.0780    3.3510 H   0  0  0  0  0  0  0  0  0  0  0  0
   -3.4420   -4.1230   -1.3530 H   0  0  0  0  0  0  0  0  0  0  0  0
    3.5390   -2.6390    2.2420 H   0  0  0  0  0  0  0  0  0  0  0  0
  1  2  1  0  0  0  0
  1  3  1  0  0  0  0
  1  5  1  0  0  0  0
  2  7  1  0  0  0  0
  2  8  2  0  0  0  0
  3  6  2  0  0  0  0
  3  9  1  0  0  0  0
  4  5  2  0  0  0  0
  4  6  1  0  0  0  0
  5 26  1  0  0  0  0
  6 10  1  0  0  0  0
  7 12  1  0  0  0  0
  7 13  1  0  0  0  0
  9 16  1  0  0  0  0
  9 17  2  0  0  0  0
 10 18  1  0  0  0  0
 10 19  2  0  0  0  0
 11 14  1  0  0  0  0
 11 15  1  0  0  0  0
 12 14  1  0  0  0  0
 12 27  1  0  0  0  0
 12 28  1  0  0  0  0
 13 15  1  0  0  0  0
 13 29  1  0  0  0  0
 13 30  1  0  0  0  0
 14 31  1  0  0  0  0
 14 32  1  0  0  0  0
 15 33  1  0  0  0  0
 15 34  1  0  0  0  0
 16 23  2  0  0  0  0
 16 35  1  0  0  0  0
 17 22  1  0  0  0  0
 17 36  1  0  0  0  0
 18 21  2  0  0  0  0
 18 37  1  0  0  0  0
 19 20  1  0  0  0  0
 19 38  1  0  0  0  0
 20 24  2  0  0  0  0
 20 39  1  0  0  0  0
 21 24  1  0  0  0  0
 21 40  1  0  0  0  0
 22 25  2  0  0  0  0
 22 41  1  0  0  0  0
 23 25  1  0  0  0  0
 23 42  1  0  0  0  0
 24 43  1  0  0  0  0
 25 44  1  0  0  0  0
M  END
>  <$CLUSTER>
101

>  <INDEX>
67660

$$$$
Lithuania 1050567
  MOE2020           3D

 41 43  0  0  0  0  0  0  0  0999 V2000
    1.2270    0.1670    0.3400 C   0  0  0  0  0  0  0  0  0  0  0  0
    0.3380    1.1920    0.1200 N   0  0  0  0  0  0  0  0  0  0  0  0
   -1.0620   -0.6390   -0.3060 C   0  0  0  0  0  0  0  0  0  0  0  0
   -0.9450    0.8390   -0.2390 C   0  0  0  0  0  0  0  0  0  0  0  0
    0.4430   -1.3730    0.0890 S   0  0  0  0  0  0  0  0  0  0  0  0
   -2.2010   -1.2570   -0.6320 C   0  0  0  0  0  0  0  0  0  0  0  0
    2.4520    0.3840    0.6800 N   0  0  0  0  0  0  0  0  0  0  0  0
   -2.4460   -2.7290   -0.7330 C   0  0  0  0  0  0  0  0  0  0  0  0
    5.8240   -4.2210    1.4310 C   0  0  0  0  0  0  0  0  0  0  0  0
   -1.8730    1.6060   -0.4760 O   0  0  0  0  0  0  0  0  0  0  0  0
    4.9200   -2.9870    1.2790 C   0  0  0  0  0  0  0  0  0  0  0  0
   -3.2210   -3.2620   -1.7480 C   0  0  0  0  0  0  0  0  0  0  0  0
   -1.8630   -3.5590    0.2430 C   0  0  0  0  0  0  0  0  0  0  0  0
    6.0380   -4.9310    0.4060 O   0  0  0  0  0  0  0  0  0  0  0  0
    3.3350   -0.7710    0.8960 C   0  0  0  0  0  0  0  0  0  0  0  0
    0.7330    2.5810    0.2610 C   0  0  0  0  0  0  0  0  0  0  0  0
    4.8350   -2.3990    0.0160 C   0  0  0  0  0  0  0  0  0  0  0  0
    4.1960   -2.4530    2.3460 C   0  0  0  0  0  0  0  0  0  0  0  0
   -3.4230   -4.6490   -1.7910 C   0  0  0  0  0  0  0  0  0  0  0  0
   -2.0710   -4.9370    0.1880 C   0  0  0  0  0  0  0  0  0  0  0  0
    6.2370   -4.3920    2.6150 O   0  5  0  0  0  0  0  0  0  0  0  0
    3.3850   -1.3330    2.1490 C   0  0  0  0  0  0  0  0  0  0  0  0
    4.0230   -1.2800   -0.1800 C   0  0  0  0  0  0  0  0  0  0  0  0
   -2.8480   -5.4800   -0.8280 C   0  0  0  0  0  0  0  0  0  0  0  0
   -1.3790   -5.9620    1.3580 Cl  0  0  0  0  0  0  0  0  0  0  0  0
   -3.7490   -2.3780   -2.6590 O   0  0  0  0  0  0  0  0  0  0  0  0
   -4.5650   -2.9100   -3.6940 C   0  0  0  0  0  0  0  0  0  0  0  0
   -3.0440   -0.6180   -0.8480 H   0  0  0  0  0  0  0  0  0  0  0  0
   -1.2590   -3.1320    1.0290 H   0  0  0  0  0  0  0  0  0  0  0  0
   -0.1190    3.2250    0.0420 H   0  0  0  0  0  0  0  0  0  0  0  0
    1.5430    2.8010   -0.4350 H   0  0  0  0  0  0  0  0  0  0  0  0
    1.0720    2.7610    1.2810 H   0  0  0  0  0  0  0  0  0  0  0  0
    5.3970   -2.8090   -0.8100 H   0  0  0  0  0  0  0  0  0  0  0  0
    4.2630   -2.9060    3.3240 H   0  0  0  0  0  0  0  0  0  0  0  0
   -4.0290   -5.0780   -2.5760 H   0  0  0  0  0  0  0  0  0  0  0  0
    2.8100   -0.9180    2.9630 H   0  0  0  0  0  0  0  0  0  0  0  0
    3.9370   -0.8240   -1.1550 H   0  0  0  0  0  0  0  0  0  0  0  0
   -3.0070   -6.5470   -0.8730 H   0  0  0  0  0  0  0  0  0  0  0  0
   -4.9110   -2.1000   -4.3360 H   0  0  0  0  0  0  0  0  0  0  0  0
   -5.4240   -3.4180   -3.2550 H   0  0  0  0  0  0  0  0  0  0  0  0
   -3.9860   -3.6200   -4.2850 H   0  0  0  0  0  0  0  0  0  0  0  0
  1  2  1  0  0  0  0
  1  5  1  0  0  0  0
  1  7  2  0  0  0  0
  2  4  1  0  0  0  0
  2 16  1  0  0  0  0
  3  4  1  0  0  0  0
  3  5  1  0  0  0  0
  3  6  2  0  0  0  0
  4 10  2  0  0  0  0
  6  8  1  0  0  0  0
  6 28  1  0  0  0  0
  7 15  1  0  0  0  0
  8 12  1  0  0  0  0
  8 13  2  0  0  0  0
  9 11  1  0  0  0  0
  9 14  2  0  0  0  0
  9 21  1  0  0  0  0
 11 17  1  0  0  0  0
 11 18  2  0  0  0  0
 12 19  2  0  0  0  0
 12 26  1  0  0  0  0
 13 20  1  0  0  0  0
 13 29  1  0  0  0  0
 15 22  2  0  0  0  0
 15 23  1  0  0  0  0
 16 30  1  0  0  0  0
 16 31  1  0  0  0  0
 16 32  1  0  0  0  0
 17 23  2  0  0  0  0
 17 33  1  0  0  0  0
 18 22  1  0  0  0  0
 18 34  1  0  0  0  0
 19 24  1  0  0  0  0
 19 35  1  0  0  0  0
 20 24  2  0  0  0  0
 20 25  1  0  0  0  0
 22 36  1  0  0  0  0
 23 37  1  0  0  0  0
 24 38  1  0  0  0  0
 26 27  1  0  0  0  0
 27 39  1  0  0  0  0
 27 40  1  0  0  0  0
 27 41  1  0  0  0  0
M  CHG  1  21  -1
M  END
>  <$CLUSTER>
102

>  <INDEX>
222602

$$$$
Chemdiv 1680-0001
  MOE2020           3D

 47 49  0  0  0  0  0  0  0  0999 V2000
   -2.2200    0.1030    0.3940 C   0  0  0  0  0  0  0  0  0  0  0  0
    4.3650   -1.2050   -2.8940 C   0  0  0  0  0  0  0  0  0  0  0  0
   -0.9220    0.1730    0.8820 N   0  0  0  0  0  0  0  0  0  0  0  0
    4.0490   -0.8140   -1.6000 N   0  0  0  0  0  0  0  0  0  0  0  0
   -3.2230    0.4650    1.4600 C   0  0  0  0  0  0  0  0  0  0  0  0
    5.8570   -1.3380   -3.0740 C   0  0  0  0  0  0  0  0  0  0  0  0
   -2.5870   -0.2030   -0.7360 O   0  0  0  0  0  0  0  0  0  0  0  0
    3.5980   -1.4320   -3.8240 O   0  0  0  0  0  0  0  0  0  0  0  0
   -4.4850    0.9450    0.9920 C   0  0  0  0  0  0  0  0  0  0  0  0
    6.2830   -2.2100   -4.1220 C   0  0  0  0  0  0  0  0  0  0  0  0
    6.7990   -0.6390   -2.3570 C   0  0  0  0  0  0  0  0  0  0  0  0
    0.2780   -0.0950    0.1810 C   0  0  0  0  0  0  0  0  0  0  0  0
    2.7550   -0.5850   -1.0510 C   0  0  0  0  0  0  0  0  0  0  0  0
   -5.4820    1.2800    1.9100 C   0  0  0  0  0  0  0  0  0  0  0  0
    8.5860   -1.6740   -3.6190 C   0  0  0  0  0  0  0  0  0  0  0  0
    8.1620   -0.8060   -2.6140 C   0  0  0  0  0  0  0  0  0  0  0  0
    7.6470   -2.3730   -4.3750 C   0  0  0  0  0  0  0  0  0  0  0  0
   -7.1030    1.9240    1.2910 Br  0  0  0  0  0  0  0  0  0  0  0  0
    2.7070   -0.1970    0.2840 C   0  0  0  0  0  0  0  0  0  0  0  0
    1.4760    0.0470    0.8970 C   0  0  0  0  0  0  0  0  0  0  0  0
    1.5710   -0.7290   -1.7720 C   0  0  0  0  0  0  0  0  0  0  0  0
    0.3360   -0.4850   -1.1610 C   0  0  0  0  0  0  0  0  0  0  0  0
    9.8930   -1.9140   -3.9750 O   0  0  0  0  0  0  0  0  0  0  0  0
   -3.0270    0.3020    2.8110 C   0  0  0  0  0  0  0  0  0  0  0  0
   -4.0280    0.6390    3.7250 C   0  0  0  0  0  0  0  0  0  0  0  0
   -5.2520    1.1290    3.2760 C   0  0  0  0  0  0  0  0  0  0  0  0
   10.9040   -1.2240   -3.2410 C   0  0  0  0  0  0  0  0  0  0  0  0
   12.2530   -1.6450   -3.7970 C   0  0  0  0  0  0  0  0  0  0  0  0
   -0.8230    0.4470    1.8490 H   0  0  0  0  0  0  0  0  0  0  0  0
    4.8290   -0.6760   -0.9740 H   0  0  0  0  0  0  0  0  0  0  0  0
   -4.6670    1.0480   -0.0680 H   0  0  0  0  0  0  0  0  0  0  0  0
    5.5540   -2.7410   -4.7160 H   0  0  0  0  0  0  0  0  0  0  0  0
    6.4820    0.0470   -1.5860 H   0  0  0  0  0  0  0  0  0  0  0  0
    8.8900   -0.2610   -2.0320 H   0  0  0  0  0  0  0  0  0  0  0  0
    7.9740   -3.0420   -5.1570 H   0  0  0  0  0  0  0  0  0  0  0  0
    3.6220   -0.0840    0.8470 H   0  0  0  0  0  0  0  0  0  0  0  0
    1.4460    0.3480    1.9340 H   0  0  0  0  0  0  0  0  0  0  0  0
    1.6070   -1.0310   -2.8080 H   0  0  0  0  0  0  0  0  0  0  0  0
   -0.5760   -0.5980   -1.7280 H   0  0  0  0  0  0  0  0  0  0  0  0
   -2.0870   -0.0910    3.1700 H   0  0  0  0  0  0  0  0  0  0  0  0
   -3.8520    0.5190    4.7840 H   0  0  0  0  0  0  0  0  0  0  0  0
   -6.0220    1.3920    3.9860 H   0  0  0  0  0  0  0  0  0  0  0  0
   10.8400   -1.4870   -2.1850 H   0  0  0  0  0  0  0  0  0  0  0  0
   10.7760   -0.1480   -3.3560 H   0  0  0  0  0  0  0  0  0  0  0  0
   12.3750   -2.7220   -3.6790 H   0  0  0  0  0  0  0  0  0  0  0  0
   13.0460   -1.1280   -3.2560 H   0  0  0  0  0  0  0  0  0  0  0  0
   12.3070   -1.3870   -4.8550 H   0  0  0  0  0  0  0  0  0  0  0  0
  1  3  1  0  0  0  0
  1  5  1  0  0  0  0
  1  7  2  0  0  0  0
  2  4  1  0  0  0  0
  2  6  1  0  0  0  0
  2  8  2  0  0  0  0
  3 12  1  0  0  0  0
  3 29  1  0  0  0  0
  4 13  1  0  0  0  0
  4 30  1  0  0  0  0
  5  9  2  0  0  0  0
  5 24  1  0  0  0  0
  6 10  1  0  0  0  0
  6 11  2  0  0  0  0
  9 14  1  0  0  0  0
  9 31  1  0  0  0  0
 10 17  2  0  0  0  0
 10 32  1  0  0  0  0
 11 16  1  0  0  0  0
 11 33  1  0  0  0  0
 12 20  2  0  0  0  0
 12 22  1  0  0  0  0
 13 19  2  0  0  0  0
 13 21  1  0  0  0  0
 14 18  1  0  0  0  0
 14 26  2  0  0  0  0
 15 16  2  0  0  0  0
 15 17  1  0  0  0  0
 15 23  1  0  0  0  0
 16 34  1  0  0  0  0
 17 35  1  0  0  0  0
 19 20  1  0  0  0  0
 19 36  1  0  0  0  0
 20 37  1  0  0  0  0
 21 22  2  0  0  0  0
 21 38  1  0  0  0  0
 22 39  1  0  0  0  0
 23 27  1  0  0  0  0
 24 25  2  0  0  0  0
 24 40  1  0  0  0  0
 25 26  1  0  0  0  0
 25 41  1  0  0  0  0
 26 42  1  0  0  0  0
 27 28  1  0  0  0  0
 27 43  1  0  0  0  0
 27 44  1  0  0  0  0
 28 45  1  0  0  0  0
 28 46  1  0  0  0  0
 28 47  1  0  0  0  0
M  END
>  <$CLUSTER>
103

>  <INDEX>
15477

$$$$
Chembridge 5347798
  MOE2020           3D

 33 34  0  0  0  0  0  0  0  0999 V2000
   -2.3450    0.7660   -0.4210 C   0  0  0  0  0  0  0  0  0  0  0  0
   -1.0780    0.3300   -0.7920 N   0  0  0  0  0  0  0  0  0  0  0  0
    0.0440    0.0930    0.0460 C   0  0  0  0  0  0  0  0  0  0  0  0
    1.2490   -0.3540   -0.5450 C   0  0  0  0  0  0  0  0  0  0  0  0
   -3.2490    0.8890   -1.6220 C   0  0  0  0  0  0  0  0  0  0  0  0
   -2.7560    1.0380    0.7020 O   0  0  0  0  0  0  0  0  0  0  0  0
    2.3720   -0.5940    0.2670 C   0  0  0  0  0  0  0  0  0  0  0  0
    0.0040    0.2850    1.4350 C   0  0  0  0  0  0  0  0  0  0  0  0
   -4.6510    0.8010   -1.3590 C   0  0  0  0  0  0  0  0  0  0  0  0
   -2.8220    1.1400   -2.9050 C   0  0  0  0  0  0  0  0  0  0  0  0
    2.3130   -0.3980    1.6440 C   0  0  0  0  0  0  0  0  0  0  0  0
   -5.1060    1.1590   -3.7060 C   0  0  0  0  0  0  0  0  0  0  0  0
    1.1300    0.0410    2.2260 C   0  0  0  0  0  0  0  0  0  0  0  0
   -3.7380    1.2670   -3.9520 C   0  0  0  0  0  0  0  0  0  0  0  0
   -5.5620    0.9280   -2.4100 C   0  0  0  0  0  0  0  0  0  0  0  0
    3.6910   -0.6990    2.5960 Cl  0  0  0  0  0  0  0  0  0  0  0  0
   -5.9060    1.3120   -4.8150 O   0  0  0  0  0  0  0  0  0  0  0  0
    1.3800   -0.5860   -2.0280 C   0  0  0  0  0  0  0  0  0  0  0  0
   -7.3110    1.2150   -4.6120 C   0  0  0  0  0  0  0  0  0  0  0  0
   -0.9380    0.1610   -1.7780 H   0  0  0  0  0  0  0  0  0  0  0  0
    3.2920   -0.9350   -0.1840 H   0  0  0  0  0  0  0  0  0  0  0  0
   -0.9090    0.6260    1.8990 H   0  0  0  0  0  0  0  0  0  0  0  0
   -5.0050    0.6370   -0.3520 H   0  0  0  0  0  0  0  0  0  0  0  0
   -1.7660    1.2400   -3.1060 H   0  0  0  0  0  0  0  0  0  0  0  0
    1.0810    0.1940    3.2940 H   0  0  0  0  0  0  0  0  0  0  0  0
   -3.3850    1.4500   -4.9560 H   0  0  0  0  0  0  0  0  0  0  0  0
   -6.6220    0.8470   -2.2180 H   0  0  0  0  0  0  0  0  0  0  0  0
    0.4330   -0.3580   -2.5160 H   0  0  0  0  0  0  0  0  0  0  0  0
    1.6420   -1.6280   -2.2110 H   0  0  0  0  0  0  0  0  0  0  0  0
    2.1600    0.0600   -2.4290 H   0  0  0  0  0  0  0  0  0  0  0  0
   -7.8260    1.3540   -5.5630 H   0  0  0  0  0  0  0  0  0  0  0  0
   -7.6310    1.9850   -3.9100 H   0  0  0  0  0  0  0  0  0  0  0  0
   -7.5530    0.2320   -4.2080 H   0  0  0  0  0  0  0  0  0  0  0  0
  1  2  1  0  0  0  0
  1  5  1  0  0  0  0
  1  6  2  0  0  0  0
  2  3  1  0  0  0  0
  2 20  1  0  0  0  0
  3  4  2  0  0  0  0
  3  8  1  0  0  0  0
  4  7  1  0  0  0  0
  4 18  1  0  0  0  0
  5  9  1  0  0  0  0
  5 10  2  0  0  0  0
  7 11  2  0  0  0  0
  7 21  1  0  0  0  0
  8 13  2  0  0  0  0
  8 22  1  0  0  0  0
  9 15  2  0  0  0  0
  9 23  1  0  0  0  0
 10 14  1  0  0  0  0
 10 24  1  0  0  0  0
 11 13  1  0  0  0  0
 11 16  1  0  0  0  0
 12 14  2  0  0  0  0
 12 15  1  0  0  0  0
 12 17  1  0  0  0  0
 13 25  1  0  0  0  0
 14 26  1  0  0  0  0
 15 27  1  0  0  0  0
 17 19  1  0  0  0  0
 18 28  1  0  0  0  0
 18 29  1  0  0  0  0
 18 30  1  0  0  0  0
 19 31  1  0  0  0  0
 19 32  1  0  0  0  0
 19 33  1  0  0  0  0
M  END
>  <$CLUSTER>
104

>  <INDEX>
42603

$$$$
Maybridge SEW 00721
  MOE2020           3D

 30 31  0  0  0  0  0  0  0  0999 V2000
   -1.2090   -0.5390   -0.2270 S   0  0  0  0  0  0  0  0  0  0  0  0
    0.4050    0.0180    0.1650 C   0  0  0  0  0  0  0  0  0  0  0  0
    0.9230   -0.2680    1.3760 C   0  0  0  0  0  0  0  0  0  0  0  0
    1.0830    0.7700   -0.8330 C   0  0  0  0  0  0  0  0  0  0  0  0
    2.2730    0.1270    1.8900 C   0  0  0  0  0  0  0  0  0  0  0  0
    1.6560    1.4000   -1.6270 N   0  0  0  0  0  0  0  0  0  0  0  0
   -2.2150    0.8210    0.3540 C   0  0  0  0  0  0  0  0  0  0  0  0
    2.4700    0.2520    3.2490 C   0  0  0  0  0  0  0  0  0  0  0  0
   -1.3680   -0.6180   -1.6750 O   0  0  0  0  0  0  0  0  0  0  0  0
   -1.5480   -1.7110    0.5750 O   0  0  0  0  0  0  0  0  0  0  0  0
    3.7160    0.5990    3.7640 C   0  0  0  0  0  0  0  0  0  0  0  0
    3.3400    0.3360    1.0100 C   0  0  0  0  0  0  0  0  0  0  0  0
   -2.9810    0.6760    1.5080 C   0  0  0  0  0  0  0  0  0  0  0  0
   -2.2850    1.9760   -0.4200 C   0  0  0  0  0  0  0  0  0  0  0  0
    4.7830    0.8190    2.8950 C   0  0  0  0  0  0  0  0  0  0  0  0
    1.4630    0.0400    4.1130 F   0  0  0  0  0  0  0  0  0  0  0  0
   -3.8350    2.9160    1.1790 C   0  0  0  0  0  0  0  0  0  0  0  0
    4.5950    0.6850    1.5200 C   0  0  0  0  0  0  0  0  0  0  0  0
   -3.0870    3.0340    0.0070 C   0  0  0  0  0  0  0  0  0  0  0  0
   -3.7810    1.7380    1.9270 C   0  0  0  0  0  0  0  0  0  0  0  0
    6.0080    1.1590    3.2940 F   0  0  0  0  0  0  0  0  0  0  0  0
   -4.8090    4.2160    1.6860 Cl  0  0  0  0  0  0  0  0  0  0  0  0
    0.2990   -0.8420    2.0460 H   0  0  0  0  0  0  0  0  0  0  0  0
    3.8550    0.6970    4.8310 H   0  0  0  0  0  0  0  0  0  0  0  0
    3.1960    0.2290   -0.0550 H   0  0  0  0  0  0  0  0  0  0  0  0
   -2.9560   -0.2460    2.0700 H   0  0  0  0  0  0  0  0  0  0  0  0
   -1.7250    2.0520   -1.3400 H   0  0  0  0  0  0  0  0  0  0  0  0
    5.4220    0.8510    0.8460 H   0  0  0  0  0  0  0  0  0  0  0  0
   -3.1290    3.9460   -0.5700 H   0  0  0  0  0  0  0  0  0  0  0  0
   -4.3610    1.6490    2.8340 H   0  0  0  0  0  0  0  0  0  0  0  0
  1  2  1  0  0  0  0
  1  7  1  0  0  0  0
  1  9  2  0  0  0  0
  1 10  2  0  0  0  0
  2  3  2  0  0  0  0
  2  4  1  0  0  0  0
  3  5  1  0  0  0  0
  3 23  1  0  0  0  0
  4  6  3  0  0  0  0
  5  8  2  0  0  0  0
  5 12  1  0  0  0  0
  7 13  1  0  0  0  0
  7 14  2  0  0  0  0
  8 11  1  0  0  0  0
  8 16  1  0  0  0  0
 11 15  2  0  0  0  0
 11 24  1  0  0  0  0
 12 18  2  0  0  0  0
 12 25  1  0  0  0  0
 13 20  2  0  0  0  0
 13 26  1  0  0  0  0
 14 19  1  0  0  0  0
 14 27  1  0  0  0  0
 15 18  1  0  0  0  0
 15 21  1  0  0  0  0
 17 19  2  0  0  0  0
 17 20  1  0  0  0  0
 17 22  1  0  0  0  0
 18 28  1  0  0  0  0
 19 29  1  0  0  0  0
 20 30  1  0  0  0  0
M  END
>  <$CLUSTER>
105

>  <INDEX>
624699

$$$$
Specs AE-641/30151023
  MOE2020           3D

 51 54  0  0  1  0  0  0  0  0999 V2000
   -1.1020    0.9080   -0.2120 C   0  0  0  0  0  0  0  0  0  0  0  0
   -0.3230    1.1390    1.0840 C   0  0  3  0  0  0  0  0  0  0  0  0
    1.0210   -0.3220   -1.6810 S   0  0  0  0  0  0  0  0  0  0  0  0
   -0.6240    0.3340   -1.4090 C   0  0  0  0  0  0  0  0  0  0  0  0
   -0.2410    2.5850    1.3620 N   0  0  0  0  0  0  0  0  0  0  0  0
    1.0950    0.5620    1.2610 C   0  0  0  0  0  0  0  0  0  0  0  0
    1.1470   -1.4310   -0.2900 C   0  0  0  0  0  0  0  0  0  0  0  0
    1.1690   -0.9240    1.0190 C   0  0  0  0  0  0  0  0  0  0  0  0
   -0.8070    5.4260    1.0400 N   0  0  0  0  0  0  0  0  0  0  0  0
   -2.4570    1.3240   -0.1830 C   0  0  0  0  0  0  0  0  0  0  0  0
   -1.5320    3.2180    1.7700 C   0  0  0  0  0  0  0  0  0  0  0  0
    0.3880    3.4290    0.3480 C   0  0  0  0  0  0  0  0  0  0  0  0
   -1.4840    0.2290   -2.5240 C   0  0  0  0  0  0  0  0  0  0  0  0
   -1.4200    4.6580    2.1320 C   0  0  0  0  0  0  0  0  0  0  0  0
    0.5060    4.8650    0.6960 C   0  0  0  0  0  0  0  0  0  0  0  0
   -3.2970    1.2060   -1.2900 C   0  0  0  0  0  0  0  0  0  0  0  0
   -2.8060    0.6620   -2.4650 C   0  0  0  0  0  0  0  0  0  0  0  0
   -4.9120    1.7310   -1.1830 Cl  0  0  0  0  0  0  0  0  0  0  0  0
   -0.1710    9.4540    0.7350 S   0  0  0  0  0  0  0  0  0  0  0  0
   -0.6920    6.8380    1.3990 C   0  0  0  0  0  0  0  0  0  0  0  0
    1.2290   -2.8100   -0.5090 C   0  0  0  0  0  0  0  0  0  0  0  0
    1.2510   -1.8160    2.0970 C   0  0  0  0  0  0  0  0  0  0  0  0
   -0.3050    7.7440    0.2400 C   0  0  0  0  0  0  0  0  0  0  0  0
    1.3470    9.3950    1.7220 C   0  0  0  0  0  0  0  0  0  0  0  0
    1.3180   -3.6870    0.5720 C   0  0  0  0  0  0  0  0  0  0  0  0
    1.3260   -3.1910    1.8740 C   0  0  0  0  0  0  0  0  0  0  0  0
   -0.9220    0.5550    1.7820 H   0  0  0  0  0  0  0  0  0  0  0  0
    1.4260    0.7630    2.2800 H   0  0  0  0  0  0  0  0  0  0  0  0
    1.7620    1.0610    0.5570 H   0  0  0  0  0  0  0  0  0  0  0  0
   -2.8530    1.7470    0.7280 H   0  0  0  0  0  0  0  0  0  0  0  0
   -1.9190    2.6780    2.6340 H   0  0  0  0  0  0  0  0  0  0  0  0
   -2.2340    3.1280    0.9410 H   0  0  0  0  0  0  0  0  0  0  0  0
   -0.2020    3.3520   -0.5660 H   0  0  0  0  0  0  0  0  0  0  0  0
    1.3910    3.0440    0.1660 H   0  0  0  0  0  0  0  0  0  0  0  0
   -1.1080   -0.1970   -3.4430 H   0  0  0  0  0  0  0  0  0  0  0  0
   -2.4150    5.0540    2.3320 H   0  0  0  0  0  0  0  0  0  0  0  0
   -0.8040    4.7550    3.0260 H   0  0  0  0  0  0  0  0  0  0  0  0
    1.1760    4.9720    1.5490 H   0  0  0  0  0  0  0  0  0  0  0  0
    0.9140    5.4070   -0.1570 H   0  0  0  0  0  0  0  0  0  0  0  0
   -3.4450    0.5740   -3.3310 H   0  0  0  0  0  0  0  0  0  0  0  0
    0.0670    6.9330    2.1760 H   0  0  0  0  0  0  0  0  0  0  0  0
   -1.6540    7.1720    1.7880 H   0  0  0  0  0  0  0  0  0  0  0  0
    1.2230   -3.1970   -1.5170 H   0  0  0  0  0  0  0  0  0  0  0  0
    1.2560   -1.4360    3.1080 H   0  0  0  0  0  0  0  0  0  0  0  0
    0.6570    7.4170   -0.1550 H   0  0  0  0  0  0  0  0  0  0  0  0
   -1.0640    7.6620   -0.5380 H   0  0  0  0  0  0  0  0  0  0  0  0
    1.5700   10.3910    2.1060 H   0  0  0  0  0  0  0  0  0  0  0  0
    2.1730    9.0530    1.0980 H   0  0  0  0  0  0  0  0  0  0  0  0
    1.2120    8.7060    2.5560 H   0  0  0  0  0  0  0  0  0  0  0  0
    1.3810   -4.7510    0.4000 H   0  0  0  0  0  0  0  0  0  0  0  0
    1.3900   -3.8710    2.7110 H   0  0  0  0  0  0  0  0  0  0  0  0
  1  2  1  0  0  0  0
  1  4  2  0  0  0  0
  1 10  1  0  0  0  0
  2  5  1  0  0  0  0
  2  6  1  0  0  0  0
  2 27  1  0  0  0  0
  3  4  1  0  0  0  0
  3  7  1  0  0  0  0
  4 13  1  0  0  0  0
  5 11  1  0  0  0  0
  5 12  1  0  0  0  0
  6  8  1  0  0  0  0
  6 28  1  0  0  0  0
  6 29  1  0  0  0  0
  7  8  2  0  0  0  0
  7 21  1  0  0  0  0
  8 22  1  0  0  0  0
  9 14  1  0  0  0  0
  9 15  1  0  0  0  0
  9 20  1  0  0  0  0
 10 16  2  0  0  0  0
 10 30  1  0  0  0  0
 11 14  1  0  0  0  0
 11 31  1  0  0  0  0
 11 32  1  0  0  0  0
 12 15  1  0  0  0  0
 12 33  1  0  0  0  0
 12 34  1  0  0  0  0
 13 17  2  0  0  0  0
 13 35  1  0  0  0  0
 14 36  1  0  0  0  0
 14 37  1  0  0  0  0
 15 38  1  0  0  0  0
 15 39  1  0  0  0  0
 16 17  1  0  0  0  0
 16 18  1  0  0  0  0
 17 40  1  0  0  0  0
 19 23  1  0  0  0  0
 19 24  1  0  0  0  0
 20 23  1  0  0  0  0
 20 41  1  0  0  0  0
 20 42  1  0  0  0  0
 21 25  2  0  0  0  0
 21 43  1  0  0  0  0
 22 26  2  0  0  0  0
 22 44  1  0  0  0  0
 23 45  1  0  0  0  0
 23 46  1  0  0  0  0
 24 47  1  0  0  0  0
 24 48  1  0  0  0  0
 24 49  1  0  0  0  0
 25 26  1  0  0  0  0
 25 50  1  0  0  0  0
 26 51  1  0  0  0  0
M  END
>  <$CLUSTER>
106

>  <INDEX>
490465

$$$$
Bionet 10W-0283
  MOE2020           3D

 36 37  0  0  0  0  0  0  0  0999 V2000
   -0.2140   -0.6230   -0.6780 N   0  0  0  0  0  0  0  0  0  0  0  0
   -0.4680    0.1930   -2.1730 S   0  0  0  0  0  0  0  0  0  0  0  0
   -1.2140   -0.5160    0.0830 N   0  0  0  0  0  0  0  0  0  0  0  0
    0.9120   -0.1380    0.0870 C   0  0  0  0  0  0  0  0  0  0  0  0
    0.5330    0.1490    1.3400 C   0  0  0  0  0  0  0  0  0  0  0  0
   -0.9150   -0.0720    1.3390 C   0  0  0  0  0  0  0  0  0  0  0  0
   -1.8200   -0.7450   -2.8590 C   0  0  0  0  0  0  0  0  0  0  0  0
   -0.9450    1.5420   -1.9310 O   0  0  0  0  0  0  0  0  0  0  0  0
    0.6660   -0.0420   -3.0490 O   0  0  0  0  0  0  0  0  0  0  0  0
   -1.6650    0.1140    2.2840 O   0  0  0  0  0  0  0  0  0  0  0  0
   -1.5820   -1.8680   -3.6560 C   0  0  0  0  0  0  0  0  0  0  0  0
   -3.1480   -0.3250   -2.6250 C   0  0  0  0  0  0  0  0  0  0  0  0
    1.2900    0.6620    2.5090 C   0  0  0  0  0  0  0  0  0  0  0  0
    2.2840   -0.0940   -0.4870 C   0  0  0  0  0  0  0  0  0  0  0  0
   -4.2110   -1.0390   -3.1820 C   0  0  0  0  0  0  0  0  0  0  0  0
   -2.6490   -2.5760   -4.2090 C   0  0  0  0  0  0  0  0  0  0  0  0
   -3.9610   -2.1620   -3.9720 C   0  0  0  0  0  0  0  0  0  0  0  0
    2.2890    0.1220    4.6300 O   0  0  0  0  0  0  0  0  0  0  0  0
    1.5580   -0.4290    3.5350 C   0  0  0  0  0  0  0  0  0  0  0  0
   -5.1000   -2.9260   -4.5680 C   0  0  0  0  0  0  0  0  0  0  0  0
   -2.1540   -0.7390   -0.2110 H   0  0  0  0  0  0  0  0  0  0  0  0
   -0.5680   -2.1890   -3.8440 H   0  0  0  0  0  0  0  0  0  0  0  0
   -3.3410    0.5460   -2.0170 H   0  0  0  0  0  0  0  0  0  0  0  0
    0.7120    1.4560    2.9820 H   0  0  0  0  0  0  0  0  0  0  0  0
    2.2430    1.0620    2.1630 H   0  0  0  0  0  0  0  0  0  0  0  0
    2.2480   -0.3860   -1.5370 H   0  0  0  0  0  0  0  0  0  0  0  0
    2.9290   -0.7820    0.0600 H   0  0  0  0  0  0  0  0  0  0  0  0
    2.6800    0.9180   -0.4050 H   0  0  0  0  0  0  0  0  0  0  0  0
   -5.2270   -0.7220   -3.0010 H   0  0  0  0  0  0  0  0  0  0  0  0
   -2.4600   -3.4450   -4.8210 H   0  0  0  0  0  0  0  0  0  0  0  0
    2.4440   -0.5850    5.2610 H   0  0  0  0  0  0  0  0  0  0  0  0
    2.1400   -1.2270    3.0740 H   0  0  0  0  0  0  0  0  0  0  0  0
    0.6110   -0.8310    3.8950 H   0  0  0  0  0  0  0  0  0  0  0  0
   -6.0420   -2.4600   -4.2770 H   0  0  0  0  0  0  0  0  0  0  0  0
   -5.0770   -3.9540   -4.2070 H   0  0  0  0  0  0  0  0  0  0  0  0
   -5.0120   -2.9210   -5.6540 H   0  0  0  0  0  0  0  0  0  0  0  0
  1  2  1  0  0  0  0
  1  3  1  0  0  0  0
  1  4  1  0  0  0  0
  2  7  1  0  0  0  0
  2  8  2  0  0  0  0
  2  9  2  0  0  0  0
  3  6  1  0  0  0  0
  3 21  1  0  0  0  0
  4  5  2  0  0  0  0
  4 14  1  0  0  0  0
  5  6  1  0  0  0  0
  5 13  1  0  0  0  0
  6 10  2  0  0  0  0
  7 11  1  0  0  0  0
  7 12  2  0  0  0  0
 11 16  2  0  0  0  0
 11 22  1  0  0  0  0
 12 15  1  0  0  0  0
 12 23  1  0  0  0  0
 13 19  1  0  0  0  0
 13 24  1  0  0  0  0
 13 25  1  0  0  0  0
 14 26  1  0  0  0  0
 14 27  1  0  0  0  0
 14 28  1  0  0  0  0
 15 17  2  0  0  0  0
 15 29  1  0  0  0  0
 16 17  1  0  0  0  0
 16 30  1  0  0  0  0
 17 20  1  0  0  0  0
 18 19  1  0  0  0  0
 18 31  1  0  0  0  0
 19 32  1  0  0  0  0
 19 33  1  0  0  0  0
 20 34  1  0  0  0  0
 20 35  1  0  0  0  0
 20 36  1  0  0  0  0
M  END
>  <$CLUSTER>
107

>  <INDEX>
8117

$$$$
Tripos 1524-18765
  MOE2020           3D

 52 55  0  0  0  0  0  0  0  0999 V2000
    4.4510   -1.5250   -0.6050 N   0  0  0  0  0  0  0  0  0  0  0  0
    0.2200   -0.2340    0.6260 C   0  0  0  0  0  0  0  0  0  0  0  0
    6.0230   -4.0460   -0.3530 N   0  0  0  0  0  0  0  0  0  0  0  0
   -0.2790    0.2310   -0.6030 C   0  0  0  0  0  0  0  0  0  0  0  0
    1.5930   -0.3840    0.8100 C   0  0  0  0  0  0  0  0  0  0  0  0
   -0.5930   -0.5560    1.7020 O   0  0  0  0  0  0  0  0  0  0  0  0
    6.2460   -6.5300   -0.0810 C   0  0  0  0  0  0  0  0  0  0  0  0
   -1.6290    0.4360   -0.8450 O   0  0  0  0  0  0  0  0  0  0  0  0
    2.4680   -0.0980   -0.2410 C   0  0  0  0  0  0  0  0  0  0  0  0
    5.6240   -7.6330   -0.4220 C   0  0  0  0  0  0  0  0  0  0  0  0
    3.9740   -0.2700   -0.0490 C   0  0  0  0  0  0  0  0  0  0  0  0
    0.5950    0.5030   -1.6540 C   0  0  0  0  0  0  0  0  0  0  0  0
    3.9700   -2.7070    0.1400 C   0  0  0  0  0  0  0  0  0  0  0  0
    5.9450   -1.5410   -0.5840 C   0  0  0  0  0  0  0  0  0  0  0  0
    6.5340   -2.8770   -1.1110 C   0  0  0  0  0  0  0  0  0  0  0  0
    4.5390   -4.0310   -0.3730 C   0  0  0  0  0  0  0  0  0  0  0  0
    1.9700    0.3390   -1.4710 C   0  0  0  0  0  0  0  0  0  0  0  0
    6.5360   -5.2990   -0.9250 C   0  0  0  0  0  0  0  0  0  0  0  0
    5.0870   -8.0160   -1.7660 C   0  0  0  0  0  0  0  0  0  0  0  0
   -1.9660   -0.6930    1.2930 C   0  0  0  0  0  0  0  0  0  0  0  0
   -2.3790    0.4570    0.3830 C   0  0  0  0  0  0  0  0  0  0  0  0
    5.1310   -9.3270   -2.1720 C   0  0  0  0  0  0  0  0  0  0  0  0
    4.5420   -7.0260   -2.5960 C   0  0  0  0  0  0  0  0  0  0  0  0
    4.0420   -7.3870   -3.8480 C   0  0  0  0  0  0  0  0  0  0  0  0
    4.6320   -9.6860   -3.4250 C   0  0  0  0  0  0  0  0  0  0  0  0
    4.0900   -8.7160   -4.2640 C   0  0  0  0  0  0  0  0  0  0  0  0
    1.9790   -0.7200    1.7610 H   0  0  0  0  0  0  0  0  0  0  0  0
    6.6010   -6.4910    0.9380 H   0  0  0  0  0  0  0  0  0  0  0  0
    5.4810   -8.3570    0.3670 H   0  0  0  0  0  0  0  0  0  0  0  0
    4.1980   -0.2490    1.0180 H   0  0  0  0  0  0  0  0  0  0  0  0
    4.4890    0.5530   -0.5440 H   0  0  0  0  0  0  0  0  0  0  0  0
    0.2110    0.8390   -2.6060 H   0  0  0  0  0  0  0  0  0  0  0  0
    4.2540   -2.5930    1.1860 H   0  0  0  0  0  0  0  0  0  0  0  0
    2.8840   -2.7450    0.0600 H   0  0  0  0  0  0  0  0  0  0  0  0
    6.3120   -0.7270   -1.2090 H   0  0  0  0  0  0  0  0  0  0  0  0
    6.2820   -1.3910    0.4420 H   0  0  0  0  0  0  0  0  0  0  0  0
    7.6200   -2.8440   -1.0180 H   0  0  0  0  0  0  0  0  0  0  0  0
    6.2630   -2.9920   -2.1600 H   0  0  0  0  0  0  0  0  0  0  0  0
    4.2000   -4.1860   -1.3970 H   0  0  0  0  0  0  0  0  0  0  0  0
    4.1710   -4.8400    0.2580 H   0  0  0  0  0  0  0  0  0  0  0  0
    2.6500    0.5510   -2.2830 H   0  0  0  0  0  0  0  0  0  0  0  0
    6.0800   -5.4400   -1.9050 H   0  0  0  0  0  0  0  0  0  0  0  0
    7.6160   -5.2070   -1.0370 H   0  0  0  0  0  0  0  0  0  0  0  0
   -2.0860   -1.6340    0.7560 H   0  0  0  0  0  0  0  0  0  0  0  0
   -2.6030   -0.6950    2.1770 H   0  0  0  0  0  0  0  0  0  0  0  0
   -2.1970    1.4010    0.8960 H   0  0  0  0  0  0  0  0  0  0  0  0
   -3.4410    0.3670    0.1540 H   0  0  0  0  0  0  0  0  0  0  0  0
    5.5520  -10.0800   -1.5220 H   0  0  0  0  0  0  0  0  0  0  0  0
    4.5100   -5.9970   -2.2700 H   0  0  0  0  0  0  0  0  0  0  0  0
    3.6170   -6.6350   -4.4960 H   0  0  0  0  0  0  0  0  0  0  0  0
    4.6660  -10.7170   -3.7440 H   0  0  0  0  0  0  0  0  0  0  0  0
    3.7080   -8.9930   -5.2350 H   0  0  0  0  0  0  0  0  0  0  0  0
  1 11  1  0  0  0  0
  1 13  1  0  0  0  0
  1 14  1  0  0  0  0
  2  4  2  0  0  0  0
  2  5  1  0  0  0  0
  2  6  1  0  0  0  0
  3 15  1  0  0  0  0
  3 16  1  0  0  0  0
  3 18  1  0  0  0  0
  4  8  1  0  0  0  0
  4 12  1  0  0  0  0
  5  9  2  0  0  0  0
  5 27  1  0  0  0  0
  6 20  1  0  0  0  0
  7 10  2  0  0  0  0
  7 18  1  0  0  0  0
  7 28  1  0  0  0  0
  8 21  1  0  0  0  0
  9 11  1  0  0  0  0
  9 17  1  0  0  0  0
 10 19  1  0  0  0  0
 10 29  1  0  0  0  0
 11 30  1  0  0  0  0
 11 31  1  0  0  0  0
 12 17  2  0  0  0  0
 12 32  1  0  0  0  0
 13 16  1  0  0  0  0
 13 33  1  0  0  0  0
 13 34  1  0  0  0  0
 14 15  1  0  0  0  0
 14 35  1  0  0  0  0
 14 36  1  0  0  0  0
 15 37  1  0  0  0  0
 15 38  1  0  0  0  0
 16 39  1  0  0  0  0
 16 40  1  0  0  0  0
 17 41  1  0  0  0  0
 18 42  1  0  0  0  0
 18 43  1  0  0  0  0
 19 22  1  0  0  0  0
 19 23  2  0  0  0  0
 20 21  1  0  0  0  0
 20 44  1  0  0  0  0
 20 45  1  0  0  0  0
 21 46  1  0  0  0  0
 21 47  1  0  0  0  0
 22 25  2  0  0  0  0
 22 48  1  0  0  0  0
 23 24  1  0  0  0  0
 23 49  1  0  0  0  0
 24 26  2  0  0  0  0
 24 50  1  0  0  0  0
 25 26  1  0  0  0  0
 25 51  1  0  0  0  0
 26 52  1  0  0  0  0
M  END
>  <$CLUSTER>
108

>  <INDEX>
446390

$$$$
Chemdiv K087-0017
  MOE2020           3D

 36 37  0  0  0  0  0  0  0  0999 V2000
   -0.5610    0.1610   -0.3240 C   0  0  0  0  0  0  0  0  0  0  0  0
   -0.6990    1.4790    0.1370 C   0  0  0  0  0  0  0  0  0  0  0  0
    1.3180    1.2640    1.4570 N   0  0  0  0  0  0  0  0  0  0  0  0
   -2.7880   -3.1880   -2.9820 C   0  0  0  0  0  0  0  0  0  0  0  0
    0.5280   -0.6220    0.1070 C   0  0  0  0  0  0  0  0  0  0  0  0
   -1.5960   -1.5260   -1.7630 N   0  0  0  0  0  0  0  0  0  0  0  0
    0.2560    1.9790    1.0170 C   0  0  0  0  0  0  0  0  0  0  0  0
   -3.9860   -3.3370   -3.9190 C   0  0  0  0  0  0  0  0  0  0  0  0
    1.4230   -0.0090    0.9920 C   0  0  0  0  0  0  0  0  0  0  0  0
   -1.5880   -0.3350   -1.2530 C   0  0  0  0  0  0  0  0  0  0  0  0
   -2.6200   -1.7930   -2.5890 N   0  0  0  0  0  0  0  0  0  0  0  0
   -2.1120   -4.1240   -2.6490 O   0  0  0  0  0  0  0  0  0  0  0  0
   -4.5600   -4.6290   -3.9350 C   0  0  0  0  0  0  0  0  0  0  0  0
   -4.4550   -2.3520   -4.7450 C   0  0  0  0  0  0  0  0  0  0  0  0
   -1.7580    2.2660   -0.2710 O   0  0  0  0  0  0  0  0  0  0  0  0
   -6.1310   -3.8700   -5.6070 C   0  0  0  0  0  0  0  0  0  0  0  0
   -5.6420   -4.8810   -4.7810 C   0  0  0  0  0  0  0  0  0  0  0  0
   -5.5370   -2.6090   -5.5900 C   0  0  0  0  0  0  0  0  0  0  0  0
   -7.5670   -4.1820   -6.7310 Br  0  0  0  0  0  0  0  0  0  0  0  0
    0.7500   -2.0460   -0.3410 C   0  0  0  0  0  0  0  0  0  0  0  0
    1.9260   -2.6090    0.2440 O   0  0  0  0  0  0  0  0  0  0  0  0
    0.1220    3.3850    1.5210 C   0  0  0  0  0  0  0  0  0  0  0  0
    2.2640   -0.5940    1.3330 H   0  0  0  0  0  0  0  0  0  0  0  0
   -2.3870    0.3370   -1.5280 H   0  0  0  0  0  0  0  0  0  0  0  0
   -3.2400   -1.0680   -2.9200 H   0  0  0  0  0  0  0  0  0  0  0  0
   -4.1670   -5.4100   -3.3020 H   0  0  0  0  0  0  0  0  0  0  0  0
   -3.9890   -1.3780   -4.7440 H   0  0  0  0  0  0  0  0  0  0  0  0
   -1.7700    3.1530    0.0960 H   0  0  0  0  0  0  0  0  0  0  0  0
   -6.1000   -5.8590   -4.7950 H   0  0  0  0  0  0  0  0  0  0  0  0
   -5.9150   -1.8280   -6.2330 H   0  0  0  0  0  0  0  0  0  0  0  0
    0.8530   -2.0630   -1.4260 H   0  0  0  0  0  0  0  0  0  0  0  0
   -0.1120   -2.6460   -0.0490 H   0  0  0  0  0  0  0  0  0  0  0  0
    2.6720   -2.0670   -0.0250 H   0  0  0  0  0  0  0  0  0  0  0  0
   -0.7690    3.8420    1.0910 H   0  0  0  0  0  0  0  0  0  0  0  0
    1.0010    3.9600    1.2310 H   0  0  0  0  0  0  0  0  0  0  0  0
    0.0370    3.3750    2.6080 H   0  0  0  0  0  0  0  0  0  0  0  0
  1  2  1  0  0  0  0
  1  5  2  0  0  0  0
  1 10  1  0  0  0  0
  2  7  2  0  0  0  0
  2 15  1  0  0  0  0
  3  7  1  0  0  0  0
  3  9  2  0  0  0  0
  4  8  1  0  0  0  0
  4 11  1  0  0  0  0
  4 12  2  0  0  0  0
  5  9  1  0  0  0  0
  5 20  1  0  0  0  0
  6 10  2  0  0  0  0
  6 11  1  0  0  0  0
  7 22  1  0  0  0  0
  8 13  2  0  0  0  0
  8 14  1  0  0  0  0
  9 23  1  0  0  0  0
 10 24  1  0  0  0  0
 11 25  1  0  0  0  0
 13 17  1  0  0  0  0
 13 26  1  0  0  0  0
 14 18  2  0  0  0  0
 14 27  1  0  0  0  0
 15 28  1  0  0  0  0
 16 17  2  0  0  0  0
 16 18  1  0  0  0  0
 16 19  1  0  0  0  0
 17 29  1  0  0  0  0
 18 30  1  0  0  0  0
 20 21  1  0  0  0  0
 20 31  1  0  0  0  0
 20 32  1  0  0  0  0
 21 33  1  0  0  0  0
 22 34  1  0  0  0  0
 22 35  1  0  0  0  0
 22 36  1  0  0  0  0
M  END
>  <$CLUSTER>
109

>  <INDEX>
198567

$$$$
Chembridge 6633333
  MOE2020           3D

 42 45  0  0  1  0  0  0  0  0999 V2000
    0.5140   -0.7250   -0.5100 N   0  0  0  0  0  0  0  0  0  0  0  0
   -1.8620    0.8530   -0.5350 C   0  0  0  0  0  0  0  0  0  0  0  0
    0.4270    0.7090   -0.8450 C   0  0  3  0  0  0  0  0  0  0  0  0
   -0.6490    1.4130   -0.2050 O   0  0  0  0  0  0  0  0  0  0  0  0
   -2.2760   -0.3060    0.1090 C   0  0  0  0  0  0  0  0  0  0  0  0
   -0.0210   -1.1990    0.7220 C   0  0  0  0  0  0  0  0  0  0  0  0
   -2.6380    1.5540   -1.3750 N   0  0  0  0  0  0  0  0  0  0  0  0
   -1.3930   -1.0270    1.0260 C   0  0  0  0  0  0  0  0  0  0  0  0
   -3.5240   -0.7930   -0.1150 N   0  0  0  0  0  0  0  0  0  0  0  0
   -3.8550    1.0030   -1.5500 C   0  0  0  0  0  0  0  0  0  0  0  0
    1.1490   -1.5550   -1.4380 C   0  0  0  0  0  0  0  0  0  0  0  0
   -4.3180   -0.1340   -0.9570 N   0  0  0  0  0  0  0  0  0  0  0  0
    1.7130    1.4270   -0.4370 C   0  0  0  0  0  0  0  0  0  0  0  0
    1.6840   -1.1190   -2.4570 O   0  0  0  0  0  0  0  0  0  0  0  0
   -5.0110    1.8180   -2.6570 S   0  0  0  0  0  0  0  0  0  0  0  0
    2.0010    1.7020    0.9140 C   0  0  0  0  0  0  0  0  0  0  0  0
    2.6500    1.8210   -1.4090 C   0  0  0  0  0  0  0  0  0  0  0  0
    4.0960    2.7360    0.2980 C   0  0  0  0  0  0  0  0  0  0  0  0
    0.8140   -1.8810    1.6190 C   0  0  0  0  0  0  0  0  0  0  0  0
   -1.8930   -1.5810    2.2200 C   0  0  0  0  0  0  0  0  0  0  0  0
    3.8300    2.4710   -1.0440 C   0  0  0  0  0  0  0  0  0  0  0  0
    3.1830    2.3520    1.2760 C   0  0  0  0  0  0  0  0  0  0  0  0
    5.2460    3.3600    0.5590 F   0  0  0  0  0  0  0  0  0  0  0  0
    1.1210   -3.0540   -1.2070 C   0  0  0  0  0  0  0  0  0  0  0  0
   -4.0050    3.2270   -3.1980 C   0  0  0  0  0  0  0  0  0  0  0  0
    0.2990   -2.4050    2.8020 C   0  0  0  0  0  0  0  0  0  0  0  0
   -1.0520   -2.2620    3.0990 C   0  0  0  0  0  0  0  0  0  0  0  0
    0.2540    0.7230   -1.9210 H   0  0  0  0  0  0  0  0  0  0  0  0
    1.2990    1.4070    1.6800 H   0  0  0  0  0  0  0  0  0  0  0  0
    2.4540    1.6180   -2.4510 H   0  0  0  0  0  0  0  0  0  0  0  0
    1.8630   -2.0010    1.3910 H   0  0  0  0  0  0  0  0  0  0  0  0
   -2.9410   -1.4770    2.4580 H   0  0  0  0  0  0  0  0  0  0  0  0
    4.5380    2.7690   -1.8030 H   0  0  0  0  0  0  0  0  0  0  0  0
    3.3890    2.5570    2.3160 H   0  0  0  0  0  0  0  0  0  0  0  0
    0.6140   -3.2670   -0.2660 H   0  0  0  0  0  0  0  0  0  0  0  0
    2.1420   -3.4340   -1.1640 H   0  0  0  0  0  0  0  0  0  0  0  0
    0.5870   -3.5380   -2.0250 H   0  0  0  0  0  0  0  0  0  0  0  0
   -4.5800    3.8380   -3.8940 H   0  0  0  0  0  0  0  0  0  0  0  0
   -3.1050    2.8620   -3.6920 H   0  0  0  0  0  0  0  0  0  0  0  0
   -3.7260    3.8280   -2.3320 H   0  0  0  0  0  0  0  0  0  0  0  0
    0.9500   -2.9230    3.4900 H   0  0  0  0  0  0  0  0  0  0  0  0
   -1.4500   -2.6790    4.0120 H   0  0  0  0  0  0  0  0  0  0  0  0
  1  3  1  0  0  0  0
  1  6  1  0  0  0  0
  1 11  1  0  0  0  0
  2  4  1  0  0  0  0
  2  5  2  0  0  0  0
  2  7  1  0  0  0  0
  3  4  1  0  0  0  0
  3 13  1  0  0  0  0
  3 28  1  0  0  0  0
  5  8  1  0  0  0  0
  5  9  1  0  0  0  0
  6  8  2  0  0  0  0
  6 19  1  0  0  0  0
  7 10  2  0  0  0  0
  8 20  1  0  0  0  0
  9 12  2  0  0  0  0
 10 12  1  0  0  0  0
 10 15  1  0  0  0  0
 11 14  2  0  0  0  0
 11 24  1  0  0  0  0
 13 16  1  0  0  0  0
 13 17  2  0  0  0  0
 15 25  1  0  0  0  0
 16 22  2  0  0  0  0
 16 29  1  0  0  0  0
 17 21  1  0  0  0  0
 17 30  1  0  0  0  0
 18 21  2  0  0  0  0
 18 22  1  0  0  0  0
 18 23  1  0  0  0  0
 19 26  2  0  0  0  0
 19 31  1  0  0  0  0
 20 27  2  0  0  0  0
 20 32  1  0  0  0  0
 21 33  1  0  0  0  0
 22 34  1  0  0  0  0
 24 35  1  0  0  0  0
 24 36  1  0  0  0  0
 24 37  1  0  0  0  0
 25 38  1  0  0  0  0
 25 39  1  0  0  0  0
 25 40  1  0  0  0  0
 26 27  1  0  0  0  0
 26 41  1  0  0  0  0
 27 42  1  0  0  0  0
M  END
>  <$CLUSTER>
110

>  <INDEX>
66254

$$$$
Chembridge 7057431
  MOE2020           3D

 51 54  0  0  0  0  0  0  0  0999 V2000
   -0.1080    0.7820    0.3300 N   0  0  0  0  0  0  0  0  0  0  0  0
    0.7230    0.9280   -0.7820 C   0  0  0  0  0  0  0  0  0  0  0  0
   -0.3240   -0.5470    0.6270 C   0  0  0  0  0  0  0  0  0  0  0  0
    0.4470   -1.2990   -0.3890 C   0  0  0  0  0  0  0  0  0  0  0  0
    1.0460   -0.3700   -1.1970 N   0  0  0  0  0  0  0  0  0  0  0  0
    1.7420   -6.8940   -6.4090 N   0  3  0  0  0  0  0  0  0  0  0  0
    0.5780   -2.6150   -0.5500 C   0  0  0  0  0  0  0  0  0  0  0  0
    0.5540   -6.4330   -5.7710 C   0  0  0  0  0  0  0  0  0  0  0  0
   -0.6790    1.8960    1.0740 C   0  0  0  0  0  0  0  0  0  0  0  0
   -0.0270   -3.7100    0.2660 C   0  0  0  0  0  0  0  0  0  0  0  0
    1.8760   -6.8120   -7.6420 O   0  5  0  0  0  0  0  0  0  0  0  0
    1.1030    1.9670   -1.3040 O   0  0  0  0  0  0  0  0  0  0  0  0
    2.6050   -7.3710   -5.6530 O   0  0  0  0  0  0  0  0  0  0  0  0
   -1.0020   -1.0250    1.5220 O   0  0  0  0  0  0  0  0  0  0  0  0
   -0.5320   -4.8570   -0.3210 C   0  0  0  0  0  0  0  0  0  0  0  0
   -0.4500   -4.9420   -1.6900 O   0  0  0  0  0  0  0  0  0  0  0  0
    0.3930   -6.5190   -4.3860 C   0  0  0  0  0  0  0  0  0  0  0  0
   -2.0250    2.3080    0.5020 C   0  0  0  0  0  0  0  0  0  0  0  0
   -0.7920   -6.0800   -3.7820 C   0  0  0  0  0  0  0  0  0  0  0  0
   -0.9430   -6.1250   -2.3060 C   0  0  0  0  0  0  0  0  0  0  0  0
   -4.5110    3.0850   -0.5480 C   0  0  0  0  0  0  0  0  0  0  0  0
   -5.7300    3.4140   -0.9780 F   0  0  0  0  0  0  0  0  0  0  0  0
   -3.2190    1.8740    1.1000 C   0  0  0  0  0  0  0  0  0  0  0  0
   -2.0950    3.1270   -0.6360 C   0  0  0  0  0  0  0  0  0  0  0  0
   -4.4560    2.2630    0.5770 C   0  0  0  0  0  0  0  0  0  0  0  0
   -3.3320    3.5150   -1.1560 C   0  0  0  0  0  0  0  0  0  0  0  0
   -0.4570   -5.8850   -6.5580 C   0  0  0  0  0  0  0  0  0  0  0  0
   -1.6280   -5.4210   -5.9640 C   0  0  0  0  0  0  0  0  0  0  0  0
   -0.0710   -3.5330    1.6620 C   0  0  0  0  0  0  0  0  0  0  0  0
   -1.0860   -5.8520    0.4970 C   0  0  0  0  0  0  0  0  0  0  0  0
   -1.7920   -5.5070   -4.5800 C   0  0  0  0  0  0  0  0  0  0  0  0
   -0.6250   -4.5300    2.4650 C   0  0  0  0  0  0  0  0  0  0  0  0
   -1.1330   -5.6860    1.8820 C   0  0  0  0  0  0  0  0  0  0  0  0
    1.6390   -0.5900   -1.9840 H   0  0  0  0  0  0  0  0  0  0  0  0
    1.2000   -2.9300   -1.3750 H   0  0  0  0  0  0  0  0  0  0  0  0
   -0.8110    1.5980    2.1140 H   0  0  0  0  0  0  0  0  0  0  0  0
    0.0030    2.7440    1.0230 H   0  0  0  0  0  0  0  0  0  0  0  0
    1.1870   -6.9260   -3.7770 H   0  0  0  0  0  0  0  0  0  0  0  0
   -0.3890   -6.9810   -1.9200 H   0  0  0  0  0  0  0  0  0  0  0  0
   -2.0000   -6.2360   -2.0620 H   0  0  0  0  0  0  0  0  0  0  0  0
   -3.1820    1.2350    1.9700 H   0  0  0  0  0  0  0  0  0  0  0  0
   -1.1850    3.4600   -1.1130 H   0  0  0  0  0  0  0  0  0  0  0  0
   -5.3690    1.9270    1.0450 H   0  0  0  0  0  0  0  0  0  0  0  0
   -3.3750    4.1490   -2.0300 H   0  0  0  0  0  0  0  0  0  0  0  0
   -0.3320   -5.8200   -7.6290 H   0  0  0  0  0  0  0  0  0  0  0  0
   -2.4100   -4.9940   -6.5740 H   0  0  0  0  0  0  0  0  0  0  0  0
    0.3220   -2.6310    2.1080 H   0  0  0  0  0  0  0  0  0  0  0  0
   -1.4790   -6.7540    0.0520 H   0  0  0  0  0  0  0  0  0  0  0  0
   -2.6940   -5.1300   -4.1220 H   0  0  0  0  0  0  0  0  0  0  0  0
   -0.6590   -4.4050    3.5370 H   0  0  0  0  0  0  0  0  0  0  0  0
   -1.5650   -6.4570    2.5030 H   0  0  0  0  0  0  0  0  0  0  0  0
  1  2  1  0  0  0  0
  1  3  1  0  0  0  0
  1  9  1  0  0  0  0
  2  5  1  0  0  0  0
  2 12  2  0  0  0  0
  3  4  1  0  0  0  0
  3 14  2  0  0  0  0
  4  5  1  0  0  0  0
  4  7  2  0  0  0  0
  5 34  1  0  0  0  0
  6  8  1  0  0  0  0
  6 11  1  0  0  0  0
  6 13  2  0  0  0  0
  7 10  1  0  0  0  0
  7 35  1  0  0  0  0
  8 17  1  0  0  0  0
  8 27  2  0  0  0  0
  9 18  1  0  0  0  0
  9 36  1  0  0  0  0
  9 37  1  0  0  0  0
 10 15  1  0  0  0  0
 10 29  2  0  0  0  0
 15 16  1  0  0  0  0
 15 30  2  0  0  0  0
 16 20  1  0  0  0  0
 17 19  2  0  0  0  0
 17 38  1  0  0  0  0
 18 23  2  0  0  0  0
 18 24  1  0  0  0  0
 19 20  1  0  0  0  0
 19 31  1  0  0  0  0
 20 39  1  0  0  0  0
 20 40  1  0  0  0  0
 21 22  1  0  0  0  0
 21 25  2  0  0  0  0
 21 26  1  0  0  0  0
 23 25  1  0  0  0  0
 23 41  1  0  0  0  0
 24 26  2  0  0  0  0
 24 42  1  0  0  0  0
 25 43  1  0  0  0  0
 26 44  1  0  0  0  0
 27 28  1  0  0  0  0
 27 45  1  0  0  0  0
 28 31  2  0  0  0  0
 28 46  1  0  0  0  0
 29 32  1  0  0  0  0
 29 47  1  0  0  0  0
 30 33  1  0  0  0  0
 30 48  1  0  0  0  0
 31 49  1  0  0  0  0
 32 33  2  0  0  0  0
 32 50  1  0  0  0  0
 33 51  1  0  0  0  0
M  CHG  1   6   1
M  CHG  1  11  -1
M  END
>  <$CLUSTER>
111

>  <INDEX>
73777

$$$$
Enamine T0517-2553
  MOE2020           3D

 41 44  0  0  0  0  0  0  0  0999 V2000
   -3.6150   -3.9410    0.5200 C   0  0  0  0  0  0  0  0  0  0  0  0
    0.3620    0.6510   -0.0820 N   0  3  0  0  0  0  0  0  0  0  0  0
   -2.3370   -4.2380    0.5350 N   0  0  0  0  0  0  0  0  0  0  0  0
   -1.8690   -6.3010    2.1350 N   0  0  0  0  0  0  0  0  0  0  0  0
   -4.0110   -2.2880    0.3310 S   0  0  0  0  0  0  0  0  0  0  0  0
   -2.3320   -1.9030    0.2600 C   0  0  0  0  0  0  0  0  0  0  0  0
   -1.5890   -3.0800    0.3870 C   0  0  0  0  0  0  0  0  0  0  0  0
   -3.1470   -6.7450    2.1790 C   0  0  0  0  0  0  0  0  0  0  0  0
   -0.2920   -0.6470    0.0810 C   0  0  0  0  0  0  0  0  0  0  0  0
   -1.7850   -0.6130    0.1000 C   0  0  0  0  0  0  0  0  0  0  0  0
   -1.0300   -6.2970    3.3630 C   0  0  0  0  0  0  0  0  0  0  0  0
   -4.8670   -5.1660    0.6830 S   0  0  0  0  0  0  0  0  0  0  0  0
    0.3020   -6.9850    3.1370 C   0  0  0  0  0  0  0  0  0  0  0  0
    1.6040    0.6970   -0.1070 O   0  5  0  0  0  0  0  0  0  0  0  0
   -0.3660    1.6520   -0.1880 O   0  0  0  0  0  0  0  0  0  0  0  0
   -1.1210   -5.8240    0.9440 C   0  0  0  0  0  0  0  0  0  0  0  0
   -3.8840   -6.6730    0.8440 C   0  0  0  0  0  0  0  0  0  0  0  0
    0.8330   -7.1860    1.8470 C   0  0  0  0  0  0  0  0  0  0  0  0
   -3.6920   -7.1010    3.2180 O   0  0  0  0  0  0  0  0  0  0  0  0
   -0.1800   -2.9980    0.3550 C   0  0  0  0  0  0  0  0  0  0  0  0
    0.4780   -1.7400    0.1970 C   0  0  0  0  0  0  0  0  0  0  0  0
    0.0260   -6.7930    0.6320 C   0  0  0  0  0  0  0  0  0  0  0  0
    1.0560   -7.3760    4.2560 C   0  0  0  0  0  0  0  0  0  0  0  0
    2.0840   -7.8040    1.6960 C   0  0  0  0  0  0  0  0  0  0  0  0
    2.3040   -7.9810    4.0960 C   0  0  0  0  0  0  0  0  0  0  0  0
    2.8170   -8.1970    2.8180 C   0  0  0  0  0  0  0  0  0  0  0  0
   -2.3730    0.2880    0.0030 H   0  0  0  0  0  0  0  0  0  0  0  0
   -1.5650   -6.8170    4.1580 H   0  0  0  0  0  0  0  0  0  0  0  0
   -0.8480   -5.2650    3.6620 H   0  0  0  0  0  0  0  0  0  0  0  0
   -0.7140   -4.8330    1.1450 H   0  0  0  0  0  0  0  0  0  0  0  0
   -1.7950   -5.7730    0.0890 H   0  0  0  0  0  0  0  0  0  0  0  0
   -4.5470   -7.5340    0.7630 H   0  0  0  0  0  0  0  0  0  0  0  0
   -3.1510   -6.7010    0.0370 H   0  0  0  0  0  0  0  0  0  0  0  0
    0.4080   -3.8990    0.4510 H   0  0  0  0  0  0  0  0  0  0  0  0
    1.5560   -1.6710    0.1720 H   0  0  0  0  0  0  0  0  0  0  0  0
    0.6940   -6.3170   -0.0860 H   0  0  0  0  0  0  0  0  0  0  0  0
   -0.3960   -7.6960    0.1920 H   0  0  0  0  0  0  0  0  0  0  0  0
    0.6670   -7.2070    5.2490 H   0  0  0  0  0  0  0  0  0  0  0  0
    2.4820   -7.9770    0.7070 H   0  0  0  0  0  0  0  0  0  0  0  0
    2.8730   -8.2820    4.9630 H   0  0  0  0  0  0  0  0  0  0  0  0
    3.7810   -8.6680    2.6950 H   0  0  0  0  0  0  0  0  0  0  0  0
  1  3  2  0  0  0  0
  1  5  1  0  0  0  0
  1 12  1  0  0  0  0
  2  9  1  0  0  0  0
  2 14  1  0  0  0  0
  2 15  2  0  0  0  0
  3  7  1  0  0  0  0
  4  8  1  0  0  0  0
  4 11  1  0  0  0  0
  4 16  1  0  0  0  0
  5  6  1  0  0  0  0
  6  7  1  0  0  0  0
  6 10  2  0  0  0  0
  7 20  2  0  0  0  0
  8 17  1  0  0  0  0
  8 19  2  0  0  0  0
  9 10  1  0  0  0  0
  9 21  2  0  0  0  0
 10 27  1  0  0  0  0
 11 13  1  0  0  0  0
 11 28  1  0  0  0  0
 11 29  1  0  0  0  0
 12 17  1  0  0  0  0
 13 18  2  0  0  0  0
 13 23  1  0  0  0  0
 16 22  1  0  0  0  0
 16 30  1  0  0  0  0
 16 31  1  0  0  0  0
 17 32  1  0  0  0  0
 17 33  1  0  0  0  0
 18 22  1  0  0  0  0
 18 24  1  0  0  0  0
 20 21  1  0  0  0  0
 20 34  1  0  0  0  0
 21 35  1  0  0  0  0
 22 36  1  0  0  0  0
 22 37  1  0  0  0  0
 23 25  2  0  0  0  0
 23 38  1  0  0  0  0
 24 26  2  0  0  0  0
 24 39  1  0  0  0  0
 25 26  1  0  0  0  0
 25 40  1  0  0  0  0
 26 41  1  0  0  0  0
M  CHG  1   2   1
M  CHG  1  14  -1
M  END
>  <$CLUSTER>
112

>  <INDEX>
430873

$$$$
Chembridge 7073016
  MOE2020           3D

 40 43  0  0  0  0  0  0  0  0999 V2000
   -1.0350   -0.0380    0.8680 C   0  0  0  0  0  0  0  0  0  0  0  0
   -1.4260    0.0800   -0.5400 C   0  0  0  0  0  0  0  0  0  0  0  0
    0.3720   -0.0810    0.9130 C   0  0  0  0  0  0  0  0  0  0  0  0
   -0.1930    0.1050   -1.3330 C   0  0  0  0  0  0  0  0  0  0  0  0
    0.8880    0.0070   -0.4360 C   0  0  0  0  0  0  0  0  0  0  0  0
   -1.9350   -0.2980    4.5040 C   0  0  0  0  0  0  0  0  0  0  0  0
   -1.8280   -0.1010    1.9920 C   0  0  0  0  0  0  0  0  0  0  0  0
   -3.1880    0.2720    4.5090 N   0  0  0  0  0  0  0  0  0  0  0  0
   -1.1750   -0.2130    3.2200 C   0  0  0  0  0  0  0  0  0  0  0  0
    1.0160   -0.1920    2.1330 C   0  0  0  0  0  0  0  0  0  0  0  0
   -4.1650    0.3910    5.4850 C   0  0  0  0  0  0  0  0  0  0  0  0
   -2.5640    0.1440   -0.9710 O   0  0  0  0  0  0  0  0  0  0  0  0
   -1.4420   -0.8440    5.4860 O   0  0  0  0  0  0  0  0  0  0  0  0
    0.2310   -0.2580    3.2910 C   0  0  0  0  0  0  0  0  0  0  0  0
   -5.3760    1.0460    5.1640 C   0  0  0  0  0  0  0  0  0  0  0  0
   -0.0350    0.2040   -2.6970 C   0  0  0  0  0  0  0  0  0  0  0  0
    2.1830    0.0070   -0.9210 C   0  0  0  0  0  0  0  0  0  0  0  0
   -5.4780    1.5200    3.8770 O   0  0  0  0  0  0  0  0  0  0  0  0
   -3.9860   -0.1190    6.7760 C   0  0  0  0  0  0  0  0  0  0  0  0
   -6.3750    1.1760    6.1370 C   0  0  0  0  0  0  0  0  0  0  0  0
   -6.6840    2.1860    3.5210 C   0  0  0  0  0  0  0  0  0  0  0  0
    1.2730    0.2040   -3.1830 C   0  0  0  0  0  0  0  0  0  0  0  0
    2.3710    0.1070   -2.3050 C   0  0  0  0  0  0  0  0  0  0  0  0
   -4.9890    0.0170    7.7360 C   0  0  0  0  0  0  0  0  0  0  0  0
   -6.1800    0.6620    7.4180 C   0  0  0  0  0  0  0  0  0  0  0  0
   -2.9050   -0.0650    1.9260 H   0  0  0  0  0  0  0  0  0  0  0  0
   -3.4470    0.6860    3.6250 H   0  0  0  0  0  0  0  0  0  0  0  0
    2.0940   -0.2270    2.1900 H   0  0  0  0  0  0  0  0  0  0  0  0
    0.7120   -0.3450    4.2540 H   0  0  0  0  0  0  0  0  0  0  0  0
   -0.8840    0.2780   -3.3600 H   0  0  0  0  0  0  0  0  0  0  0  0
    3.0260   -0.0680   -0.2510 H   0  0  0  0  0  0  0  0  0  0  0  0
   -3.0650   -0.6220    7.0310 H   0  0  0  0  0  0  0  0  0  0  0  0
   -7.3000    1.6770    5.8940 H   0  0  0  0  0  0  0  0  0  0  0  0
   -6.6290    2.5070    2.4810 H   0  0  0  0  0  0  0  0  0  0  0  0
   -6.8210    3.0560    4.1630 H   0  0  0  0  0  0  0  0  0  0  0  0
   -7.5260    1.5050    3.6470 H   0  0  0  0  0  0  0  0  0  0  0  0
    1.4460    0.2790   -4.2460 H   0  0  0  0  0  0  0  0  0  0  0  0
    3.3740    0.1100   -2.7060 H   0  0  0  0  0  0  0  0  0  0  0  0
   -4.8400   -0.3800    8.7290 H   0  0  0  0  0  0  0  0  0  0  0  0
   -6.9540    0.7650    8.1640 H   0  0  0  0  0  0  0  0  0  0  0  0
  1  2  1  0  0  0  0
  1  3  1  0  0  0  0
  1  7  2  0  0  0  0
  2  4  1  0  0  0  0
  2 12  2  0  0  0  0
  3  5  1  0  0  0  0
  3 10  2  0  0  0  0
  4  5  2  0  0  0  0
  4 16  1  0  0  0  0
  5 17  1  0  0  0  0
  6  8  1  0  0  0  0
  6  9  1  0  0  0  0
  6 13  2  0  0  0  0
  7  9  1  0  0  0  0
  7 26  1  0  0  0  0
  8 11  1  0  0  0  0
  8 27  1  0  0  0  0
  9 14  2  0  0  0  0
 10 14  1  0  0  0  0
 10 28  1  0  0  0  0
 11 15  2  0  0  0  0
 11 19  1  0  0  0  0
 14 29  1  0  0  0  0
 15 18  1  0  0  0  0
 15 20  1  0  0  0  0
 16 22  2  0  0  0  0
 16 30  1  0  0  0  0
 17 23  2  0  0  0  0
 17 31  1  0  0  0  0
 18 21  1  0  0  0  0
 19 24  2  0  0  0  0
 19 32  1  0  0  0  0
 20 25  2  0  0  0  0
 20 33  1  0  0  0  0
 21 34  1  0  0  0  0
 21 35  1  0  0  0  0
 21 36  1  0  0  0  0
 22 23  1  0  0  0  0
 22 37  1  0  0  0  0
 23 38  1  0  0  0  0
 24 25  1  0  0  0  0
 24 39  1  0  0  0  0
 25 40  1  0  0  0  0
M  END
>  <$CLUSTER>
113

>  <INDEX>
73875

$$$$
Chembridge 5733802
  MOE2020           3D

 50 52  0  0  0  0  0  0  0  0999 V2000
    0.8850   -1.9880   -0.3130 S   0  0  0  0  0  0  0  0  0  0  0  0
   -0.4750   -0.9410   -0.4410 N   0  0  0  0  0  0  0  0  0  0  0  0
    0.5910    4.5120    0.9410 C   0  0  0  0  0  0  0  0  0  0  0  0
    1.5750    5.1700    0.2370 N   0  0  0  0  0  0  0  0  0  0  0  0
    2.0960    6.4510    0.3110 C   0  0  0  0  0  0  0  0  0  0  0  0
    2.1120   -1.2570   -0.5680 O   0  0  0  0  0  0  0  0  0  0  0  0
    0.6030   -3.2130   -1.0390 O   0  0  0  0  0  0  0  0  0  0  0  0
   -0.2480    0.4440   -0.0860 C   0  0  0  0  0  0  0  0  0  0  0  0
    3.1270    6.8500   -0.5720 C   0  0  0  0  0  0  0  0  0  0  0  0
    0.3150    3.1050    0.5560 C   0  0  0  0  0  0  0  0  0  0  0  0
   -1.8320   -1.5110   -0.1850 C   0  0  0  0  0  0  0  0  0  0  0  0
   -0.0400    5.0310    1.8570 O   0  0  0  0  0  0  0  0  0  0  0  0
    3.6480    8.1540   -0.4860 C   0  0  0  0  0  0  0  0  0  0  0  0
    1.6200    7.3740    1.2530 C   0  0  0  0  0  0  0  0  0  0  0  0
    0.3080    1.2970   -1.0460 C   0  0  0  0  0  0  0  0  0  0  0  0
   -0.4970    0.9210    1.2050 C   0  0  0  0  0  0  0  0  0  0  0  0
    0.5820    2.6270   -0.7260 C   0  0  0  0  0  0  0  0  0  0  0  0
   -0.2220    2.2520    1.5210 C   0  0  0  0  0  0  0  0  0  0  0  0
    0.8520   -2.3960    1.4200 C   0  0  0  0  0  0  0  0  0  0  0  0
    3.1620    9.0560    0.4570 C   0  0  0  0  0  0  0  0  0  0  0  0
   -2.8620   -0.8610   -1.0950 C   0  0  0  0  0  0  0  0  0  0  0  0
    2.1490    8.6650    1.3240 C   0  0  0  0  0  0  0  0  0  0  0  0
    3.8150   10.6250    0.5330 Cl  0  0  0  0  0  0  0  0  0  0  0  0
    3.6980    5.9230   -1.6140 C   0  0  0  0  0  0  0  0  0  0  0  0
   -3.2900   -1.5140   -2.2590 C   0  0  0  0  0  0  0  0  0  0  0  0
   -3.4040    0.3910   -0.7740 C   0  0  0  0  0  0  0  0  0  0  0  0
   -4.3700    0.9750   -1.5970 C   0  0  0  0  0  0  0  0  0  0  0  0
   -4.2560   -0.9270   -3.0820 C   0  0  0  0  0  0  0  0  0  0  0  0
   -4.7980    0.3150   -2.7490 C   0  0  0  0  0  0  0  0  0  0  0  0
    2.0040    4.6020   -0.4800 H   0  0  0  0  0  0  0  0  0  0  0  0
   -2.1070   -1.3310    0.8540 H   0  0  0  0  0  0  0  0  0  0  0  0
   -1.8120   -2.5840   -0.3750 H   0  0  0  0  0  0  0  0  0  0  0  0
    4.4350    8.4590   -1.1600 H   0  0  0  0  0  0  0  0  0  0  0  0
    0.8330    7.0830    1.9330 H   0  0  0  0  0  0  0  0  0  0  0  0
    0.5250    0.9250   -2.0360 H   0  0  0  0  0  0  0  0  0  0  0  0
   -0.9020    0.2600    1.9570 H   0  0  0  0  0  0  0  0  0  0  0  0
    1.0010    3.2860   -1.4720 H   0  0  0  0  0  0  0  0  0  0  0  0
   -0.4250    2.6230    2.5150 H   0  0  0  0  0  0  0  0  0  0  0  0
    1.0600   -1.5020    2.0080 H   0  0  0  0  0  0  0  0  0  0  0  0
    1.6080   -3.1520    1.6300 H   0  0  0  0  0  0  0  0  0  0  0  0
   -0.1320   -2.7840    1.6830 H   0  0  0  0  0  0  0  0  0  0  0  0
    1.7690    9.3620    2.0560 H   0  0  0  0  0  0  0  0  0  0  0  0
    3.1950    4.9580   -1.5560 H   0  0  0  0  0  0  0  0  0  0  0  0
    4.7650    5.7890   -1.4350 H   0  0  0  0  0  0  0  0  0  0  0  0
    3.5470    6.3520   -2.6040 H   0  0  0  0  0  0  0  0  0  0  0  0
   -2.8720   -2.4750   -2.5210 H   0  0  0  0  0  0  0  0  0  0  0  0
   -3.0730    0.9070    0.1150 H   0  0  0  0  0  0  0  0  0  0  0  0
   -4.7860    1.9380   -1.3410 H   0  0  0  0  0  0  0  0  0  0  0  0
   -4.5830   -1.4360   -3.9770 H   0  0  0  0  0  0  0  0  0  0  0  0
   -5.5480    0.7650   -3.3830 H   0  0  0  0  0  0  0  0  0  0  0  0
  1  2  1  0  0  0  0
  1  6  2  0  0  0  0
  1  7  2  0  0  0  0
  1 19  1  0  0  0  0
  2  8  1  0  0  0  0
  2 11  1  0  0  0  0
  3  4  1  0  0  0  0
  3 10  1  0  0  0  0
  3 12  2  0  0  0  0
  4  5  1  0  0  0  0
  4 30  1  0  0  0  0
  5  9  2  0  0  0  0
  5 14  1  0  0  0  0
  8 15  2  0  0  0  0
  8 16  1  0  0  0  0
  9 13  1  0  0  0  0
  9 24  1  0  0  0  0
 10 17  2  0  0  0  0
 10 18  1  0  0  0  0
 11 21  1  0  0  0  0
 11 31  1  0  0  0  0
 11 32  1  0  0  0  0
 13 20  2  0  0  0  0
 13 33  1  0  0  0  0
 14 22  2  0  0  0  0
 14 34  1  0  0  0  0
 15 17  1  0  0  0  0
 15 35  1  0  0  0  0
 16 18  2  0  0  0  0
 16 36  1  0  0  0  0
 17 37  1  0  0  0  0
 18 38  1  0  0  0  0
 19 39  1  0  0  0  0
 19 40  1  0  0  0  0
 19 41  1  0  0  0  0
 20 22  1  0  0  0  0
 20 23  1  0  0  0  0
 21 25  1  0  0  0  0
 21 26  2  0  0  0  0
 22 42  1  0  0  0  0
 24 43  1  0  0  0  0
 24 44  1  0  0  0  0
 24 45  1  0  0  0  0
 25 28  2  0  0  0  0
 25 46  1  0  0  0  0
 26 27  1  0  0  0  0
 26 47  1  0  0  0  0
 27 29  2  0  0  0  0
 27 48  1  0  0  0  0
 28 29  1  0  0  0  0
 28 49  1  0  0  0  0
 29 50  1  0  0  0  0
M  END
>  <$CLUSTER>
114

>  <INDEX>
51489

$$$$
Chembridge 5707467
  MOE2020           3D

 50 52  0  0  0  0  0  0  0  0999 V2000
   -2.0460    0.0780    0.4050 S   0  0  0  0  0  0  0  0  0  0  0  0
   -0.6200   -0.8550    0.6150 N   0  0  0  0  0  0  0  0  0  0  0  0
    3.9810    1.0760   -2.1870 C   0  0  0  0  0  0  0  0  0  0  0  0
    4.6030    2.2110   -1.7160 N   0  0  0  0  0  0  0  0  0  0  0  0
   -3.1850   -0.6960    0.8640 O   0  0  0  0  0  0  0  0  0  0  0  0
   -2.0620    0.6870   -0.9110 O   0  0  0  0  0  0  0  0  0  0  0  0
   -1.7970    1.3820    1.5930 C   0  0  0  0  0  0  0  0  0  0  0  0
    0.5730   -0.3860   -0.0520 C   0  0  0  0  0  0  0  0  0  0  0  0
    2.8070    0.5860   -1.4210 C   0  0  0  0  0  0  0  0  0  0  0  0
    7.1790    4.8300   -1.8440 C   0  0  0  0  0  0  0  0  0  0  0  0
    5.6930    2.9300   -2.1630 C   0  0  0  0  0  0  0  0  0  0  0  0
    6.0840    4.0640   -1.4370 C   0  0  0  0  0  0  0  0  0  0  0  0
    4.3460    0.4800   -3.1950 O   0  0  0  0  0  0  0  0  0  0  0  0
    7.8950    4.4710   -2.9820 C   0  0  0  0  0  0  0  0  0  0  0  0
    1.5300    0.3810    0.6220 C   0  0  0  0  0  0  0  0  0  0  0  0
    0.7270   -0.6440   -1.4180 C   0  0  0  0  0  0  0  0  0  0  0  0
    1.8460   -0.1630   -2.0990 C   0  0  0  0  0  0  0  0  0  0  0  0
    2.6480    0.8600   -0.0630 C   0  0  0  0  0  0  0  0  0  0  0  0
    7.5140    3.3460   -3.7110 C   0  0  0  0  0  0  0  0  0  0  0  0
    6.4180    2.5770   -3.3060 C   0  0  0  0  0  0  0  0  0  0  0  0
   -0.4340   -1.5790    1.8960 C   0  0  0  0  0  0  0  0  0  0  0  0
    7.5780    6.0330   -1.0530 C   0  0  0  0  0  0  0  0  0  0  0  0
   -2.2410    1.2280    2.9150 C   0  0  0  0  0  0  0  0  0  0  0  0
   -1.1910    2.5840    1.1960 C   0  0  0  0  0  0  0  0  0  0  0  0
    9.0650    5.2860   -3.4230 C   0  0  0  0  0  0  0  0  0  0  0  0
   -1.0200    3.6160    2.1200 C   0  0  0  0  0  0  0  0  0  0  0  0
   -2.0670    2.2650    3.8330 C   0  0  0  0  0  0  0  0  0  0  0  0
   -1.4580    3.4560    3.4360 C   0  0  0  0  0  0  0  0  0  0  0  0
    4.1790    2.5910   -0.8820 H   0  0  0  0  0  0  0  0  0  0  0  0
    5.5320    4.3480   -0.5530 H   0  0  0  0  0  0  0  0  0  0  0  0
    1.4040    0.6020    1.6720 H   0  0  0  0  0  0  0  0  0  0  0  0
   -0.0210   -1.2160   -1.9460 H   0  0  0  0  0  0  0  0  0  0  0  0
    1.9680   -0.3710   -3.1520 H   0  0  0  0  0  0  0  0  0  0  0  0
    3.3910    1.4440    0.4600 H   0  0  0  0  0  0  0  0  0  0  0  0
    8.0690    3.0660   -4.5940 H   0  0  0  0  0  0  0  0  0  0  0  0
    6.1300    1.7070   -3.8780 H   0  0  0  0  0  0  0  0  0  0  0  0
   -1.4060   -1.8750    2.2900 H   0  0  0  0  0  0  0  0  0  0  0  0
    0.0650   -0.9270    2.6130 H   0  0  0  0  0  0  0  0  0  0  0  0
    0.1750   -2.4670    1.7260 H   0  0  0  0  0  0  0  0  0  0  0  0
    6.9030    6.1500   -0.2050 H   0  0  0  0  0  0  0  0  0  0  0  0
    7.5230    6.9190   -1.6860 H   0  0  0  0  0  0  0  0  0  0  0  0
    8.5980    5.9080   -0.6910 H   0  0  0  0  0  0  0  0  0  0  0  0
   -2.7170    0.3080    3.2220 H   0  0  0  0  0  0  0  0  0  0  0  0
   -0.8570    2.7100    0.1770 H   0  0  0  0  0  0  0  0  0  0  0  0
    9.2090    6.1180   -2.7340 H   0  0  0  0  0  0  0  0  0  0  0  0
    8.8820    5.6720   -4.4260 H   0  0  0  0  0  0  0  0  0  0  0  0
    9.9590    4.6630   -3.4320 H   0  0  0  0  0  0  0  0  0  0  0  0
   -0.5480    4.5390    1.8170 H   0  0  0  0  0  0  0  0  0  0  0  0
   -2.4040    2.1450    4.8520 H   0  0  0  0  0  0  0  0  0  0  0  0
   -1.3250    4.2560    4.1490 H   0  0  0  0  0  0  0  0  0  0  0  0
  1  2  1  0  0  0  0
  1  5  2  0  0  0  0
  1  6  2  0  0  0  0
  1  7  1  0  0  0  0
  2  8  1  0  0  0  0
  2 21  1  0  0  0  0
  3  4  1  0  0  0  0
  3  9  1  0  0  0  0
  3 13  2  0  0  0  0
  4 11  1  0  0  0  0
  4 29  1  0  0  0  0
  7 23  1  0  0  0  0
  7 24  2  0  0  0  0
  8 15  1  0  0  0  0
  8 16  2  0  0  0  0
  9 17  2  0  0  0  0
  9 18  1  0  0  0  0
 10 12  2  0  0  0  0
 10 14  1  0  0  0  0
 10 22  1  0  0  0  0
 11 12  1  0  0  0  0
 11 20  2  0  0  0  0
 12 30  1  0  0  0  0
 14 19  2  0  0  0  0
 14 25  1  0  0  0  0
 15 18  2  0  0  0  0
 15 31  1  0  0  0  0
 16 17  1  0  0  0  0
 16 32  1  0  0  0  0
 17 33  1  0  0  0  0
 18 34  1  0  0  0  0
 19 20  1  0  0  0  0
 19 35  1  0  0  0  0
 20 36  1  0  0  0  0
 21 37  1  0  0  0  0
 21 38  1  0  0  0  0
 21 39  1  0  0  0  0
 22 40  1  0  0  0  0
 22 41  1  0  0  0  0
 22 42  1  0  0  0  0
 23 27  2  0  0  0  0
 23 43  1  0  0  0  0
 24 26  1  0  0  0  0
 24 44  1  0  0  0  0
 25 45  1  0  0  0  0
 25 46  1  0  0  0  0
 25 47  1  0  0  0  0
 26 28  2  0  0  0  0
 26 48  1  0  0  0  0
 27 28  1  0  0  0  0
 27 49  1  0  0  0  0
 28 50  1  0  0  0  0
M  END
>  <$CLUSTER>
115

>  <INDEX>
51140

$$$$
Chembridge 7188365
  MOE2020           3D

 54 57  0  0  0  0  0  0  0  0999 V2000
    1.3810   -1.2760   -0.9620 C   0  0  0  0  0  0  0  0  0  0  0  0
   -0.0040   -0.8620   -0.6460 C   0  0  0  0  0  0  0  0  0  0  0  0
    0.7580    2.1980    1.4210 C   0  0  0  0  0  0  0  0  0  0  0  0
    0.8110    1.0500    0.6400 N   0  0  0  0  0  0  0  0  0  0  0  0
    1.6490   -2.6200   -0.8230 N   0  0  0  0  0  0  0  0  0  0  0  0
   -0.2720    0.2920    0.1220 C   0  0  0  0  0  0  0  0  0  0  0  0
    2.1440    2.6910    1.7560 C   0  0  0  0  0  0  0  0  0  0  0  0
    2.2130   -0.4450   -1.3100 O   0  0  0  0  0  0  0  0  0  0  0  0
   -0.2340    2.7930    1.8290 O   0  0  0  0  0  0  0  0  0  0  0  0
    6.8630    5.0150    1.4070 S   0  0  0  0  0  0  0  0  0  0  0  0
    2.2520    4.0810    2.0690 C   0  0  0  0  0  0  0  0  0  0  0  0
    3.2620    1.8950    1.8410 C   0  0  0  0  0  0  0  0  0  0  0  0
    5.9690    4.3880    2.8540 C   0  0  0  0  0  0  0  0  0  0  0  0
    4.6190    3.7970    2.4710 C   0  0  0  0  0  0  0  0  0  0  0  0
   -1.0540   -1.6350   -1.1650 C   0  0  0  0  0  0  0  0  0  0  0  0
    5.8620    6.4820    1.0290 C   0  0  0  0  0  0  0  0  0  0  0  0
    3.4950    4.6180    2.4140 C   0  0  0  0  0  0  0  0  0  0  0  0
    4.5020    2.4380    2.1880 C   0  0  0  0  0  0  0  0  0  0  0  0
    0.7020   -3.6580   -0.4080 C   0  0  0  0  0  0  0  0  0  0  0  0
    3.0050   -3.1320   -1.1120 C   0  0  0  0  0  0  0  0  0  0  0  0
   -1.6110    0.6330    0.3570 C   0  0  0  0  0  0  0  0  0  0  0  0
    4.4720    6.4760    1.0660 C   0  0  0  0  0  0  0  0  0  0  0  0
    6.5390    7.6440    0.6300 C   0  0  0  0  0  0  0  0  0  0  0  0
   -2.3760   -1.2770   -0.9160 C   0  0  0  0  0  0  0  0  0  0  0  0
    2.5950   -4.4720   -1.7990 C   0  0  0  0  0  0  0  0  0  0  0  0
    1.1750   -4.7990   -1.3640 C   0  0  0  0  0  0  0  0  0  0  0  0
   -2.6530   -0.1460   -0.1570 C   0  0  0  0  0  0  0  0  0  0  0  0
    3.7550    7.6310    0.7400 C   0  0  0  0  0  0  0  0  0  0  0  0
    5.8190    8.7970    0.3050 C   0  0  0  0  0  0  0  0  0  0  0  0
    4.4280    8.7900    0.3620 C   0  0  0  0  0  0  0  0  0  0  0  0
    1.7350    0.7130    0.4120 H   0  0  0  0  0  0  0  0  0  0  0  0
    1.3770    4.7140    2.0390 H   0  0  0  0  0  0  0  0  0  0  0  0
    3.1810    0.8380    1.6370 H   0  0  0  0  0  0  0  0  0  0  0  0
    5.8090    5.2090    3.5530 H   0  0  0  0  0  0  0  0  0  0  0  0
    6.5700    3.6150    3.3320 H   0  0  0  0  0  0  0  0  0  0  0  0
   -0.8360   -2.5100   -1.7590 H   0  0  0  0  0  0  0  0  0  0  0  0
    3.5840    5.6710    2.6370 H   0  0  0  0  0  0  0  0  0  0  0  0
    5.3730    1.8010    2.2370 H   0  0  0  0  0  0  0  0  0  0  0  0
   -0.3320   -3.3690   -0.5940 H   0  0  0  0  0  0  0  0  0  0  0  0
    0.8210   -3.9260    0.6420 H   0  0  0  0  0  0  0  0  0  0  0  0
    3.5860   -3.2950   -0.2040 H   0  0  0  0  0  0  0  0  0  0  0  0
    3.5580   -2.4770   -1.7850 H   0  0  0  0  0  0  0  0  0  0  0  0
   -1.8420    1.5100    0.9440 H   0  0  0  0  0  0  0  0  0  0  0  0
    3.9450    5.5760    1.3470 H   0  0  0  0  0  0  0  0  0  0  0  0
    7.6180    7.6480    0.5740 H   0  0  0  0  0  0  0  0  0  0  0  0
   -3.1830   -1.8760   -1.3110 H   0  0  0  0  0  0  0  0  0  0  0  0
    3.2710   -5.2690   -1.4900 H   0  0  0  0  0  0  0  0  0  0  0  0
    2.6350   -4.3610   -2.8830 H   0  0  0  0  0  0  0  0  0  0  0  0
    0.5210   -4.8500   -2.2350 H   0  0  0  0  0  0  0  0  0  0  0  0
    1.1570   -5.7550   -0.8400 H   0  0  0  0  0  0  0  0  0  0  0  0
   -3.6780    0.1330    0.0370 H   0  0  0  0  0  0  0  0  0  0  0  0
    2.6760    7.6240    0.7810 H   0  0  0  0  0  0  0  0  0  0  0  0
    6.3420    9.6940    0.0090 H   0  0  0  0  0  0  0  0  0  0  0  0
    3.8720    9.6820    0.1140 H   0  0  0  0  0  0  0  0  0  0  0  0
  1  2  1  0  0  0  0
  1  5  1  0  0  0  0
  1  8  2  0  0  0  0
  2  6  2  0  0  0  0
  2 15  1  0  0  0  0
  3  4  1  0  0  0  0
  3  7  1  0  0  0  0
  3  9  2  0  0  0  0
  4  6  1  0  0  0  0
  4 31  1  0  0  0  0
  5 19  1  0  0  0  0
  5 20  1  0  0  0  0
  6 21  1  0  0  0  0
  7 11  2  0  0  0  0
  7 12  1  0  0  0  0
 10 13  1  0  0  0  0
 10 16  1  0  0  0  0
 11 17  1  0  0  0  0
 11 32  1  0  0  0  0
 12 18  2  0  0  0  0
 12 33  1  0  0  0  0
 13 14  1  0  0  0  0
 13 34  1  0  0  0  0
 13 35  1  0  0  0  0
 14 17  2  0  0  0  0
 14 18  1  0  0  0  0
 15 24  2  0  0  0  0
 15 36  1  0  0  0  0
 16 22  2  0  0  0  0
 16 23  1  0  0  0  0
 17 37  1  0  0  0  0
 18 38  1  0  0  0  0
 19 26  1  0  0  0  0
 19 39  1  0  0  0  0
 19 40  1  0  0  0  0
 20 25  1  0  0  0  0
 20 41  1  0  0  0  0
 20 42  1  0  0  0  0
 21 27  2  0  0  0  0
 21 43  1  0  0  0  0
 22 28  1  0  0  0  0
 22 44  1  0  0  0  0
 23 29  2  0  0  0  0
 23 45  1  0  0  0  0
 24 27  1  0  0  0  0
 24 46  1  0  0  0  0
 25 26  1  0  0  0  0
 25 47  1  0  0  0  0
 25 48  1  0  0  0  0
 26 49  1  0  0  0  0
 26 50  1  0  0  0  0
 27 51  1  0  0  0  0
 28 30  2  0  0  0  0
 28 52  1  0  0  0  0
 29 30  1  0  0  0  0
 29 53  1  0  0  0  0
 30 54  1  0  0  0  0
M  END
>  <$CLUSTER>
116

>  <INDEX>
75276

$$$$
Chembridge 7200754
  MOE2020           3D

 42 44  0  0  0  0  0  0  0  0999 V2000
    0.0660    0.5350    0.3930 N   0  0  0  0  0  0  0  0  0  0  0  0
    1.2630    1.2310    0.4820 N   0  0  0  0  0  0  0  0  0  0  0  0
   -1.0770    0.9140    1.1220 C   0  0  0  0  0  0  0  0  0  0  0  0
    1.3130    2.2580    1.2650 C   0  0  0  0  0  0  0  0  0  0  0  0
   -0.9270    2.0990    1.9910 C   0  0  0  0  0  0  0  0  0  0  0  0
    0.2170    2.7620    2.0760 C   0  0  0  0  0  0  0  0  0  0  0  0
    0.1220   -0.5900   -0.5080 C   0  0  0  0  0  0  0  0  0  0  0  0
   -2.1830    0.3790    1.1240 O   0  0  0  0  0  0  0  0  0  0  0  0
    2.4190    3.0020    1.4280 O   0  0  0  0  0  0  0  0  0  0  0  0
    6.9880    3.9460    0.4310 C   0  0  0  0  0  0  0  0  0  0  0  0
    9.4230    5.3260    0.5860 C   0  0  0  0  0  0  0  0  0  0  0  0
    8.0930    3.5250   -0.3180 C   0  0  0  0  0  0  0  0  0  0  0  0
    7.1120    5.0640    1.2590 C   0  0  0  0  0  0  0  0  0  0  0  0
    8.3280    5.7500    1.3360 C   0  0  0  0  0  0  0  0  0  0  0  0
    9.3060    4.2120   -0.2420 C   0  0  0  0  0  0  0  0  0  0  0  0
    5.8620    3.1920    0.2700 O   0  0  0  0  0  0  0  0  0  0  0  0
   -0.9730   -1.4350   -0.7520 C   0  0  0  0  0  0  0  0  0  0  0  0
    1.3220   -0.8850   -1.1930 C   0  0  0  0  0  0  0  0  0  0  0  0
    3.5810    2.6100    0.6800 C   0  0  0  0  0  0  0  0  0  0  0  0
    4.7050    3.5740    1.0070 C   0  0  0  0  0  0  0  0  0  0  0  0
   10.7170    6.0660    0.6710 C   0  0  0  0  0  0  0  0  0  0  0  0
    1.4180   -1.9660   -2.0740 C   0  0  0  0  0  0  0  0  0  0  0  0
   -0.8780   -2.5170   -1.6340 C   0  0  0  0  0  0  0  0  0  0  0  0
    0.3160   -2.7840   -2.2950 C   0  0  0  0  0  0  0  0  0  0  0  0
   -1.7730    2.4340    2.5730 H   0  0  0  0  0  0  0  0  0  0  0  0
    0.3290    3.6280    2.7120 H   0  0  0  0  0  0  0  0  0  0  0  0
    8.0060    2.6610   -0.9600 H   0  0  0  0  0  0  0  0  0  0  0  0
    6.2670    5.3990    1.8410 H   0  0  0  0  0  0  0  0  0  0  0  0
    8.4190    6.6120    1.9800 H   0  0  0  0  0  0  0  0  0  0  0  0
   10.1530    3.8800   -0.8250 H   0  0  0  0  0  0  0  0  0  0  0  0
   -1.9090   -1.2450   -0.2480 H   0  0  0  0  0  0  0  0  0  0  0  0
    2.1870   -0.2590   -1.0320 H   0  0  0  0  0  0  0  0  0  0  0  0
    3.3620    2.6470   -0.3870 H   0  0  0  0  0  0  0  0  0  0  0  0
    3.8730    1.5970    0.9560 H   0  0  0  0  0  0  0  0  0  0  0  0
    4.4120    4.5870    0.7310 H   0  0  0  0  0  0  0  0  0  0  0  0
    4.9210    3.5370    2.0750 H   0  0  0  0  0  0  0  0  0  0  0  0
   10.6130    6.9010    1.3640 H   0  0  0  0  0  0  0  0  0  0  0  0
   10.9850    6.4440   -0.3160 H   0  0  0  0  0  0  0  0  0  0  0  0
   11.4980    5.3930    1.0260 H   0  0  0  0  0  0  0  0  0  0  0  0
    2.3490   -2.1660   -2.5830 H   0  0  0  0  0  0  0  0  0  0  0  0
   -1.7370   -3.1490   -1.8030 H   0  0  0  0  0  0  0  0  0  0  0  0
    0.3870   -3.6200   -2.9750 H   0  0  0  0  0  0  0  0  0  0  0  0
  1  2  1  0  0  0  0
  1  3  1  0  0  0  0
  1  7  1  0  0  0  0
  2  4  2  0  0  0  0
  3  5  1  0  0  0  0
  3  8  2  0  0  0  0
  4  6  1  0  0  0  0
  4  9  1  0  0  0  0
  5  6  2  0  0  0  0
  5 25  1  0  0  0  0
  6 26  1  0  0  0  0
  7 17  1  0  0  0  0
  7 18  2  0  0  0  0
  9 19  1  0  0  0  0
 10 12  1  0  0  0  0
 10 13  2  0  0  0  0
 10 16  1  0  0  0  0
 11 14  2  0  0  0  0
 11 15  1  0  0  0  0
 11 21  1  0  0  0  0
 12 15  2  0  0  0  0
 12 27  1  0  0  0  0
 13 14  1  0  0  0  0
 13 28  1  0  0  0  0
 14 29  1  0  0  0  0
 15 30  1  0  0  0  0
 16 20  1  0  0  0  0
 17 23  2  0  0  0  0
 17 31  1  0  0  0  0
 18 22  1  0  0  0  0
 18 32  1  0  0  0  0
 19 20  1  0  0  0  0
 19 33  1  0  0  0  0
 19 34  1  0  0  0  0
 20 35  1  0  0  0  0
 20 36  1  0  0  0  0
 21 37  1  0  0  0  0
 21 38  1  0  0  0  0
 21 39  1  0  0  0  0
 22 24  2  0  0  0  0
 22 40  1  0  0  0  0
 23 24  1  0  0  0  0
 23 41  1  0  0  0  0
 24 42  1  0  0  0  0
M  END
>  <$CLUSTER>
117

>  <INDEX>
75422

$$$$
Chembridge 7236511
  MOE2020           3D

 30 31  0  0  0  0  0  0  0  0999 V2000
    4.7470   -2.4120    0.4210 C   0  0  0  0  0  0  0  0  0  0  0  0
    0.5340   -0.1630   -0.1360 C   0  0  0  0  0  0  0  0  0  0  0  0
    4.0340   -1.3250   -0.1740 C   0  0  0  0  0  0  0  0  0  0  0  0
    2.6670   -1.2750    0.1270 O   0  0  0  0  0  0  0  0  0  0  0  0
    1.9990   -0.1740   -0.4880 C   0  0  0  0  0  0  0  0  0  0  0  0
    6.1180   -2.5740    0.1980 C   0  0  0  0  0  0  0  0  0  0  0  0
   -0.1760    1.0410   -0.1700 C   0  0  0  0  0  0  0  0  0  0  0  0
    4.7480   -0.4400   -0.9750 C   0  0  0  0  0  0  0  0  0  0  0  0
    3.8770   -3.6810    1.5330 Br  0  0  0  0  0  0  0  0  0  0  0  0
    6.8020   -1.6680   -0.6110 C   0  0  0  0  0  0  0  0  0  0  0  0
    0.4600    2.1800   -0.4830 F   0  0  0  0  0  0  0  0  0  0  0  0
    6.1190   -0.6050   -1.1960 C   0  0  0  0  0  0  0  0  0  0  0  0
    8.4410   -2.6710   -2.0150 O   0  0  0  0  0  0  0  0  0  0  0  0
   -0.1760   -1.3380    0.1650 C   0  0  0  0  0  0  0  0  0  0  0  0
    8.2740   -1.8560   -0.8660 C   0  0  0  0  0  0  0  0  0  0  0  0
   -1.5380    1.0960    0.1110 C   0  0  0  0  0  0  0  0  0  0  0  0
   -1.5440   -1.2920    0.4490 C   0  0  0  0  0  0  0  0  0  0  0  0
   -2.2250   -0.0750    0.4250 C   0  0  0  0  0  0  0  0  0  0  0  0
    2.4540    0.7550   -0.1450 H   0  0  0  0  0  0  0  0  0  0  0  0
    2.1050   -0.2530   -1.5700 H   0  0  0  0  0  0  0  0  0  0  0  0
    6.6460   -3.4000    0.6520 H   0  0  0  0  0  0  0  0  0  0  0  0
    4.2340    0.3910   -1.4350 H   0  0  0  0  0  0  0  0  0  0  0  0
    6.6500    0.0950   -1.8230 H   0  0  0  0  0  0  0  0  0  0  0  0
    9.3840   -2.7780   -2.1600 H   0  0  0  0  0  0  0  0  0  0  0  0
    0.3410   -2.2860    0.1770 H   0  0  0  0  0  0  0  0  0  0  0  0
    8.7360   -2.3390   -0.0050 H   0  0  0  0  0  0  0  0  0  0  0  0
    8.7430   -0.8860   -1.0340 H   0  0  0  0  0  0  0  0  0  0  0  0
   -2.0600    2.0410    0.0860 H   0  0  0  0  0  0  0  0  0  0  0  0
   -2.0750   -2.2020    0.6880 H   0  0  0  0  0  0  0  0  0  0  0  0
   -3.2810   -0.0400    0.6490 H   0  0  0  0  0  0  0  0  0  0  0  0
  1  3  2  0  0  0  0
  1  6  1  0  0  0  0
  1  9  1  0  0  0  0
  2  5  1  0  0  0  0
  2  7  2  0  0  0  0
  2 14  1  0  0  0  0
  3  4  1  0  0  0  0
  3  8  1  0  0  0  0
  4  5  1  0  0  0  0
  5 19  1  0  0  0  0
  5 20  1  0  0  0  0
  6 10  2  0  0  0  0
  6 21  1  0  0  0  0
  7 11  1  0  0  0  0
  7 16  1  0  0  0  0
  8 12  2  0  0  0  0
  8 22  1  0  0  0  0
 10 12  1  0  0  0  0
 10 15  1  0  0  0  0
 12 23  1  0  0  0  0
 13 15  1  0  0  0  0
 13 24  1  0  0  0  0
 14 17  2  0  0  0  0
 14 25  1  0  0  0  0
 15 26  1  0  0  0  0
 15 27  1  0  0  0  0
 16 18  2  0  0  0  0
 16 28  1  0  0  0  0
 17 18  1  0  0  0  0
 17 29  1  0  0  0  0
 18 30  1  0  0  0  0
M  END
>  <$CLUSTER>
118

>  <INDEX>
75745

$$$$
Specs AN-698/41889423
  MOE2020           3D

 52 54  0  0  0  0  0  0  0  0999 V2000
    0.5740   -0.4850   -0.6250 N   0  0  0  0  0  0  0  0  0  0  0  0
    1.4470    0.5790   -0.3880 C   0  0  0  0  0  0  0  0  0  0  0  0
   -0.5850   -0.3600    0.1120 C   0  0  0  0  0  0  0  0  0  0  0  0
   -0.4180    0.8940    0.8820 C   0  0  0  0  0  0  0  0  0  0  0  0
    0.8060    1.4060    0.5430 N   0  0  0  0  0  0  0  0  0  0  0  0
   -5.1060    0.1330    2.9980 C   0  0  0  0  0  0  0  0  0  0  0  0
   -1.2490    1.4720    1.7490 C   0  0  0  0  0  0  0  0  0  0  0  0
   -4.2610    0.7810    3.8960 C   0  0  0  0  0  0  0  0  0  0  0  0
   -4.6940   -0.0760    1.6840 C   0  0  0  0  0  0  0  0  0  0  0  0
   -2.5970    1.0040    2.1880 C   0  0  0  0  0  0  0  0  0  0  0  0
    0.8540   -1.5810   -1.5400 C   0  0  0  0  0  0  0  0  0  0  0  0
   -6.3560   -0.3150    3.4290 O   0  0  0  0  0  0  0  0  0  0  0  0
    2.5480    0.7710   -0.8830 O   0  0  0  0  0  0  0  0  0  0  0  0
   -3.0010    1.2150    3.4810 C   0  0  0  0  0  0  0  0  0  0  0  0
   -3.4330    0.3570    1.2670 C   0  0  0  0  0  0  0  0  0  0  0  0
   -1.5530   -1.1030    0.1380 O   0  0  0  0  0  0  0  0  0  0  0  0
   -4.7190    1.0340    5.5490 Cl  0  0  0  0  0  0  0  0  0  0  0  0
    0.3640   -1.2660   -2.9440 C   0  0  0  0  0  0  0  0  0  0  0  0
   -5.5950   -0.7720    0.8560 O   0  0  0  0  0  0  0  0  0  0  0  0
   -0.5420   -0.7000   -5.5410 C   0  0  0  0  0  0  0  0  0  0  0  0
    1.2560   -0.8050   -3.9250 C   0  0  0  0  0  0  0  0  0  0  0  0
   -0.9890   -1.4280   -3.2790 C   0  0  0  0  0  0  0  0  0  0  0  0
   -1.4390   -1.1490   -4.5720 C   0  0  0  0  0  0  0  0  0  0  0  0
    0.8040   -0.5250   -5.2180 C   0  0  0  0  0  0  0  0  0  0  0  0
   -7.3770    0.6300    3.0710 C   0  0  0  0  0  0  0  0  0  0  0  0
   -1.0200   -0.4070   -6.9260 C   0  0  0  0  0  0  0  0  0  0  0  0
   -5.1660   -1.0460   -0.4840 C   0  0  0  0  0  0  0  0  0  0  0  0
   -8.6070    0.2810    3.9470 C   0  0  0  0  0  0  0  0  0  0  0  0
   -7.7680    0.5120    1.6010 C   0  0  0  0  0  0  0  0  0  0  0  0
    1.1930    2.2620    0.9130 H   0  0  0  0  0  0  0  0  0  0  0  0
   -0.9040    2.3960    2.1900 H   0  0  0  0  0  0  0  0  0  0  0  0
    1.9300   -1.7530   -1.5700 H   0  0  0  0  0  0  0  0  0  0  0  0
    0.3520   -2.4800   -1.1820 H   0  0  0  0  0  0  0  0  0  0  0  0
   -2.3450    1.7160    4.1770 H   0  0  0  0  0  0  0  0  0  0  0  0
   -3.1070    0.1960    0.2500 H   0  0  0  0  0  0  0  0  0  0  0  0
    2.2980   -0.6660   -3.6790 H   0  0  0  0  0  0  0  0  0  0  0  0
   -1.6880   -1.7710   -2.5310 H   0  0  0  0  0  0  0  0  0  0  0  0
   -2.4820   -1.2810   -4.8210 H   0  0  0  0  0  0  0  0  0  0  0  0
    1.4970   -0.1730   -5.9670 H   0  0  0  0  0  0  0  0  0  0  0  0
   -7.0180    1.6470    3.2290 H   0  0  0  0  0  0  0  0  0  0  0  0
   -2.0910   -0.6000   -6.9890 H   0  0  0  0  0  0  0  0  0  0  0  0
   -0.4930   -1.0460   -7.6350 H   0  0  0  0  0  0  0  0  0  0  0  0
   -0.8250    0.6390   -7.1640 H   0  0  0  0  0  0  0  0  0  0  0  0
   -5.9510   -1.5860   -1.0140 H   0  0  0  0  0  0  0  0  0  0  0  0
   -4.2610   -1.6530   -0.4590 H   0  0  0  0  0  0  0  0  0  0  0  0
   -4.9590   -0.1080   -0.9980 H   0  0  0  0  0  0  0  0  0  0  0  0
   -8.9180   -0.7440    3.7450 H   0  0  0  0  0  0  0  0  0  0  0  0
   -9.4250    0.9620    3.7120 H   0  0  0  0  0  0  0  0  0  0  0  0
   -8.3430    0.3800    5.0000 H   0  0  0  0  0  0  0  0  0  0  0  0
   -8.1340   -0.4950    1.4020 H   0  0  0  0  0  0  0  0  0  0  0  0
   -6.8980    0.7120    0.9760 H   0  0  0  0  0  0  0  0  0  0  0  0
   -8.5520    1.2350    1.3740 H   0  0  0  0  0  0  0  0  0  0  0  0
  1  2  1  0  0  0  0
  1  3  1  0  0  0  0
  1 11  1  0  0  0  0
  2  5  1  0  0  0  0
  2 13  2  0  0  0  0
  3  4  1  0  0  0  0
  3 16  2  0  0  0  0
  4  5  1  0  0  0  0
  4  7  2  0  0  0  0
  5 30  1  0  0  0  0
  6  8  1  0  0  0  0
  6  9  2  0  0  0  0
  6 12  1  0  0  0  0
  7 10  1  0  0  0  0
  7 31  1  0  0  0  0
  8 14  2  0  0  0  0
  8 17  1  0  0  0  0
  9 15  1  0  0  0  0
  9 19  1  0  0  0  0
 10 14  1  0  0  0  0
 10 15  2  0  0  0  0
 11 18  1  0  0  0  0
 11 32  1  0  0  0  0
 11 33  1  0  0  0  0
 12 25  1  0  0  0  0
 14 34  1  0  0  0  0
 15 35  1  0  0  0  0
 18 21  1  0  0  0  0
 18 22  2  0  0  0  0
 19 27  1  0  0  0  0
 20 23  2  0  0  0  0
 20 24  1  0  0  0  0
 20 26  1  0  0  0  0
 21 24  2  0  0  0  0
 21 36  1  0  0  0  0
 22 23  1  0  0  0  0
 22 37  1  0  0  0  0
 23 38  1  0  0  0  0
 24 39  1  0  0  0  0
 25 28  1  0  0  0  0
 25 29  1  0  0  0  0
 25 40  1  0  0  0  0
 26 41  1  0  0  0  0
 26 42  1  0  0  0  0
 26 43  1  0  0  0  0
 27 44  1  0  0  0  0
 27 45  1  0  0  0  0
 27 46  1  0  0  0  0
 28 47  1  0  0  0  0
 28 48  1  0  0  0  0
 28 49  1  0  0  0  0
 29 50  1  0  0  0  0
 29 51  1  0  0  0  0
 29 52  1  0  0  0  0
M  END
>  <$CLUSTER>
119

>  <INDEX>
528522

$$$$
Chembridge 7318245
  MOE2020           3D

 38 39  0  0  0  0  0  0  0  0999 V2000
    3.8520   -4.1000   -1.1840 S   0  0  0  0  0  0  0  0  0  0  0  0
    2.2080   -2.2290   -0.3580 C   0  0  0  0  0  0  0  0  0  0  0  0
    2.6870   -1.7660   -1.5590 N   0  0  0  0  0  0  0  0  0  0  0  0
    3.5230   -2.6170   -2.0720 C   0  0  0  0  0  0  0  0  0  0  0  0
    2.7440   -3.5630    0.0600 C   0  0  0  0  0  0  0  0  0  0  0  0
    1.3310   -1.5910    0.4240 C   0  0  0  0  0  0  0  0  0  0  0  0
    0.7420   -0.2790    0.1100 C   0  0  0  0  0  0  0  0  0  0  0  0
   -0.6140   -0.0120    0.4010 C   0  0  0  0  0  0  0  0  0  0  0  0
   -1.1440    1.2560    0.1230 C   0  0  0  0  0  0  0  0  0  0  0  0
    2.4830   -4.1960    1.0770 O   0  0  0  0  0  0  0  0  0  0  0  0
    4.3290   -2.3830   -3.5720 S   0  0  0  0  0  0  0  0  0  0  0  0
    1.5380    0.7440   -0.4320 C   0  0  0  0  0  0  0  0  0  0  0  0
   -0.3400    2.2550   -0.4280 C   0  0  0  0  0  0  0  0  0  0  0  0
    0.9990    2.0010   -0.7040 C   0  0  0  0  0  0  0  0  0  0  0  0
   -1.3380   -1.0480    0.9400 O   0  0  0  0  0  0  0  0  0  0  0  0
   -0.7580    3.5310   -0.7320 O   0  0  0  0  0  0  0  0  0  0  0  0
    3.6720   -0.7730   -4.0630 C   0  0  0  0  0  0  0  0  0  0  0  0
   -2.7040   -0.8040    1.2510 C   0  0  0  0  0  0  0  0  0  0  0  0
   -2.1190    3.8470   -0.4670 C   0  0  0  0  0  0  0  0  0  0  0  0
    4.2260    0.3780   -3.2120 C   0  0  0  0  0  0  0  0  0  0  0  0
    3.7050    1.7280   -3.6780 C   0  0  0  0  0  0  0  0  0  0  0  0
    1.0360   -2.0690    1.3460 H   0  0  0  0  0  0  0  0  0  0  0  0
   -2.1830    1.4610    0.3370 H   0  0  0  0  0  0  0  0  0  0  0  0
    2.5810    0.5540   -0.6410 H   0  0  0  0  0  0  0  0  0  0  0  0
    1.6200    2.7760   -1.1280 H   0  0  0  0  0  0  0  0  0  0  0  0
    3.9340   -0.5930   -5.1060 H   0  0  0  0  0  0  0  0  0  0  0  0
    2.5870   -0.7930   -3.9590 H   0  0  0  0  0  0  0  0  0  0  0  0
   -3.1490   -1.7080    1.6680 H   0  0  0  0  0  0  0  0  0  0  0  0
   -3.2380   -0.5210    0.3440 H   0  0  0  0  0  0  0  0  0  0  0  0
   -2.7720    0.0040    1.9800 H   0  0  0  0  0  0  0  0  0  0  0  0
   -2.3140    4.8810   -0.7520 H   0  0  0  0  0  0  0  0  0  0  0  0
   -2.3210    3.7190    0.5960 H   0  0  0  0  0  0  0  0  0  0  0  0
   -2.7650    3.1830   -1.0420 H   0  0  0  0  0  0  0  0  0  0  0  0
    3.9290    0.2240   -2.1750 H   0  0  0  0  0  0  0  0  0  0  0  0
    5.3140    0.3770   -3.2820 H   0  0  0  0  0  0  0  0  0  0  0  0
    2.6170    1.7400   -3.6120 H   0  0  0  0  0  0  0  0  0  0  0  0
    4.0080    1.8970   -4.7110 H   0  0  0  0  0  0  0  0  0  0  0  0
    4.1160    2.5140   -3.0450 H   0  0  0  0  0  0  0  0  0  0  0  0
  1  4  1  0  0  0  0
  1  5  1  0  0  0  0
  2  3  1  0  0  0  0
  2  5  1  0  0  0  0
  2  6  2  0  0  0  0
  3  4  2  0  0  0  0
  4 11  1  0  0  0  0
  5 10  2  0  0  0  0
  6  7  1  0  0  0  0
  6 22  1  0  0  0  0
  7  8  2  0  0  0  0
  7 12  1  0  0  0  0
  8  9  1  0  0  0  0
  8 15  1  0  0  0  0
  9 13  2  0  0  0  0
  9 23  1  0  0  0  0
 11 17  1  0  0  0  0
 12 14  2  0  0  0  0
 12 24  1  0  0  0  0
 13 14  1  0  0  0  0
 13 16  1  0  0  0  0
 14 25  1  0  0  0  0
 15 18  1  0  0  0  0
 16 19  1  0  0  0  0
 17 20  1  0  0  0  0
 17 26  1  0  0  0  0
 17 27  1  0  0  0  0
 18 28  1  0  0  0  0
 18 29  1  0  0  0  0
 18 30  1  0  0  0  0
 19 31  1  0  0  0  0
 19 32  1  0  0  0  0
 19 33  1  0  0  0  0
 20 21  1  0  0  0  0
 20 34  1  0  0  0  0
 20 35  1  0  0  0  0
 21 36  1  0  0  0  0
 21 37  1  0  0  0  0
 21 38  1  0  0  0  0
M  END
>  <$CLUSTER>
120

>  <INDEX>
76319

$$$$
Chembridge 7972076
  MOE2020           3D

 39 39  0  0  0  0  0  0  0  0999 V2000
   -1.7270   -0.1590    0.3230 S   0  0  0  0  0  0  0  0  0  0  0  0
   -2.1450    1.4000    0.7670 N   0  0  0  0  0  0  0  0  0  0  0  0
   -1.6360    1.9140    2.0670 C   0  0  0  0  0  0  0  0  0  0  0  0
    0.0040   -0.0300   -0.0060 C   0  0  0  0  0  0  0  0  0  0  0  0
   -2.0770    1.1380    3.2750 C   0  0  0  0  0  0  0  0  0  0  0  0
   -2.4130   -0.4580   -0.9230 O   0  0  0  0  0  0  0  0  0  0  0  0
   -1.9210   -1.0130    1.4810 O   0  0  0  0  0  0  0  0  0  0  0  0
   -1.5750    0.0580    3.5990 O   0  0  0  0  0  0  0  0  0  0  0  0
    0.4420    0.2930   -1.2940 C   0  0  0  0  0  0  0  0  0  0  0  0
    0.9250   -0.2930    1.0120 C   0  0  0  0  0  0  0  0  0  0  0  0
   -3.1480    1.6590    3.9270 N   0  0  0  0  0  0  0  0  0  0  0  0
    1.8110    0.3660   -1.5580 C   0  0  0  0  0  0  0  0  0  0  0  0
    2.2920   -0.2180    0.7410 C   0  0  0  0  0  0  0  0  0  0  0  0
    2.7330    0.1110   -0.5420 C   0  0  0  0  0  0  0  0  0  0  0  0
   -2.1190    2.4550   -0.2810 C   0  0  0  0  0  0  0  0  0  0  0  0
   -3.7790    1.1080    5.1000 C   0  0  0  0  0  0  0  0  0  0  0  0
    4.1980    0.1920   -0.8310 C   0  0  0  0  0  0  0  0  0  0  0  0
   -1.7860    2.3630   -1.6670 C   0  0  0  0  0  0  0  0  0  0  0  0
   -4.8430    0.0940    4.7220 C   0  0  0  0  0  0  0  0  0  0  0  0
   -1.9800    2.9420    2.1820 H   0  0  0  0  0  0  0  0  0  0  0  0
   -0.5470    1.8970    2.0340 H   0  0  0  0  0  0  0  0  0  0  0  0
   -0.2740    0.4850   -2.0790 H   0  0  0  0  0  0  0  0  0  0  0  0
    0.5810   -0.5530    2.0020 H   0  0  0  0  0  0  0  0  0  0  0  0
   -3.5390    2.5130    3.5550 H   0  0  0  0  0  0  0  0  0  0  0  0
    2.1570    0.6200   -2.5490 H   0  0  0  0  0  0  0  0  0  0  0  0
    3.0090   -0.4150    1.5240 H   0  0  0  0  0  0  0  0  0  0  0  0
   -1.4280    3.2020    0.1100 H   0  0  0  0  0  0  0  0  0  0  0  0
   -3.1310    2.8600   -0.2770 H   0  0  0  0  0  0  0  0  0  0  0  0
   -4.2420    1.9150    5.6680 H   0  0  0  0  0  0  0  0  0  0  0  0
   -3.0230    0.6190    5.7140 H   0  0  0  0  0  0  0  0  0  0  0  0
    4.3480    0.4590   -1.8770 H   0  0  0  0  0  0  0  0  0  0  0  0
    4.6610   -0.7750   -0.6330 H   0  0  0  0  0  0  0  0  0  0  0  0
    4.6530    0.9500   -0.1940 H   0  0  0  0  0  0  0  0  0  0  0  0
   -0.7780    1.9630   -1.7730 H   0  0  0  0  0  0  0  0  0  0  0  0
   -1.8330    3.3540   -2.1190 H   0  0  0  0  0  0  0  0  0  0  0  0
   -2.4930    1.7020   -2.1680 H   0  0  0  0  0  0  0  0  0  0  0  0
   -5.6030    0.5770    4.1070 H   0  0  0  0  0  0  0  0  0  0  0  0
   -5.3050   -0.3020    5.6260 H   0  0  0  0  0  0  0  0  0  0  0  0
   -4.3850   -0.7210    4.1610 H   0  0  0  0  0  0  0  0  0  0  0  0
  1  2  1  0  0  0  0
  1  4  1  0  0  0  0
  1  6  2  0  0  0  0
  1  7  2  0  0  0  0
  2  3  1  0  0  0  0
  2 15  1  0  0  0  0
  3  5  1  0  0  0  0
  3 20  1  0  0  0  0
  3 21  1  0  0  0  0
  4  9  2  0  0  0  0
  4 10  1  0  0  0  0
  5  8  2  0  0  0  0
  5 11  1  0  0  0  0
  9 12  1  0  0  0  0
  9 22  1  0  0  0  0
 10 13  2  0  0  0  0
 10 23  1  0  0  0  0
 11 16  1  0  0  0  0
 11 24  1  0  0  0  0
 12 14  2  0  0  0  0
 12 25  1  0  0  0  0
 13 14  1  0  0  0  0
 13 26  1  0  0  0  0
 14 17  1  0  0  0  0
 15 18  1  0  0  0  0
 15 27  1  0  0  0  0
 15 28  1  0  0  0  0
 16 19  1  0  0  0  0
 16 29  1  0  0  0  0
 16 30  1  0  0  0  0
 17 31  1  0  0  0  0
 17 32  1  0  0  0  0
 17 33  1  0  0  0  0
 18 34  1  0  0  0  0
 18 35  1  0  0  0  0
 18 36  1  0  0  0  0
 19 37  1  0  0  0  0
 19 38  1  0  0  0  0
 19 39  1  0  0  0  0
M  END
>  <$CLUSTER>
121

>  <INDEX>
97541

$$$$
Chembridge 6094241
  MOE2020           3D

 29 30  0  0  0  0  0  0  0  0999 V2000
   -0.1370   -0.2730   -0.1160 N   0  0  0  0  0  0  0  0  0  0  0  0
    0.8460    0.7040   -0.2040 C   0  0  0  0  0  0  0  0  0  0  0  0
    1.9360    0.2880    0.4070 N   0  0  0  0  0  0  0  0  0  0  0  0
    1.6980   -0.9640    0.9080 N   0  0  0  0  0  0  0  0  0  0  0  0
   -1.4420   -0.2430   -0.6270 C   0  0  0  0  0  0  0  0  0  0  0  0
    0.4670   -1.2860    0.5920 C   0  0  0  0  0  0  0  0  0  0  0  0
   -3.5370   -1.3050   -0.9230 O   0  0  0  0  0  0  0  0  0  0  0  0
   -2.2690   -1.4660   -0.3640 C   0  0  0  0  0  0  0  0  0  0  0  0
   -1.8330    0.7400   -1.2410 O   0  0  0  0  0  0  0  0  0  0  0  0
   -4.3570   -2.4440   -0.6970 C   0  0  0  0  0  0  0  0  0  0  0  0
    0.6440    1.8750   -0.8340 N   0  0  0  0  0  0  0  0  0  0  0  0
   -5.6720   -2.3070   -1.2620 C   0  0  0  0  0  0  0  0  0  0  0  0
   -4.0260   -3.5940   -0.0270 C   0  0  0  0  0  0  0  0  0  0  0  0
   -6.0870   -1.0690   -2.0070 C   0  0  0  0  0  0  0  0  0  0  0  0
   -6.5850   -3.3630   -1.1110 C   0  0  0  0  0  0  0  0  0  0  0  0
   -4.9460   -4.6350    0.1150 C   0  0  0  0  0  0  0  0  0  0  0  0
   -6.2230   -4.5200   -0.4260 C   0  0  0  0  0  0  0  0  0  0  0  0
   -0.0080   -2.2200    0.8520 H   0  0  0  0  0  0  0  0  0  0  0  0
   -2.3630   -1.6150    0.7120 H   0  0  0  0  0  0  0  0  0  0  0  0
   -1.7840   -2.3340   -0.8100 H   0  0  0  0  0  0  0  0  0  0  0  0
    1.3850    2.5600   -0.8760 H   0  0  0  0  0  0  0  0  0  0  0  0
   -0.2490    2.0690   -1.2650 H   0  0  0  0  0  0  0  0  0  0  0  0
   -3.0380   -3.6960    0.3980 H   0  0  0  0  0  0  0  0  0  0  0  0
   -5.2580   -0.3610   -2.0250 H   0  0  0  0  0  0  0  0  0  0  0  0
   -6.9420   -0.6140   -1.5080 H   0  0  0  0  0  0  0  0  0  0  0  0
   -6.3610   -1.3340   -3.0280 H   0  0  0  0  0  0  0  0  0  0  0  0
   -7.5770   -3.2770   -1.5300 H   0  0  0  0  0  0  0  0  0  0  0  0
   -4.6650   -5.5320    0.6460 H   0  0  0  0  0  0  0  0  0  0  0  0
   -6.9320   -5.3270   -0.3150 H   0  0  0  0  0  0  0  0  0  0  0  0
  1  2  1  0  0  0  0
  1  5  1  0  0  0  0
  1  6  1  0  0  0  0
  2  3  2  0  0  0  0
  2 11  1  0  0  0  0
  3  4  1  0  0  0  0
  4  6  2  0  0  0  0
  5  8  1  0  0  0  0
  5  9  2  0  0  0  0
  6 18  1  0  0  0  0
  7  8  1  0  0  0  0
  7 10  1  0  0  0  0
  8 19  1  0  0  0  0
  8 20  1  0  0  0  0
 10 12  2  0  0  0  0
 10 13  1  0  0  0  0
 11 21  1  0  0  0  0
 11 22  1  0  0  0  0
 12 14  1  0  0  0  0
 12 15  1  0  0  0  0
 13 16  2  0  0  0  0
 13 23  1  0  0  0  0
 14 24  1  0  0  0  0
 14 25  1  0  0  0  0
 14 26  1  0  0  0  0
 15 17  2  0  0  0  0
 15 27  1  0  0  0  0
 16 17  1  0  0  0  0
 16 28  1  0  0  0  0
 17 29  1  0  0  0  0
M  END
>  <$CLUSTER>
122

>  <INDEX>
58855

$$$$
Chembridge 9013729
  MOE2020           3D

 44 46  0  0  0  0  0  0  0  0999 V2000
   -0.3980    1.0350   -0.3720 N   0  0  0  0  0  0  0  0  0  0  0  0
    0.0100   -0.2830   -0.4450 C   0  0  0  0  0  0  0  0  0  0  0  0
    0.2480   -0.5800   -1.7100 N   0  0  0  0  0  0  0  0  0  0  0  0
   -0.4190    1.4830   -1.6680 C   0  0  0  0  0  0  0  0  0  0  0  0
   -0.0340    0.5240   -2.4770 N   0  0  0  0  0  0  0  0  0  0  0  0
   -0.8650    3.0930   -2.1260 S   0  0  0  0  0  0  0  0  0  0  0  0
    0.1980   -1.1920    0.6780 C   0  0  0  0  0  0  0  0  0  0  0  0
    0.8010    2.9080   -4.3000 C   0  0  0  0  0  0  0  0  0  0  0  0
    1.5940    4.1920   -4.3610 C   0  0  0  0  0  0  0  0  0  0  0  0
   -0.6660    3.0230   -3.9190 C   0  0  0  0  0  0  0  0  0  0  0  0
    1.3350    1.8190   -4.5230 O   0  0  0  0  0  0  0  0  0  0  0  0
   -0.7180    1.7800    0.8330 C   0  0  0  0  0  0  0  0  0  0  0  0
    1.4820   -1.6530    0.9920 C   0  0  0  0  0  0  0  0  0  0  0  0
   -0.8950   -1.6450    1.4280 C   0  0  0  0  0  0  0  0  0  0  0  0
    2.9550    4.0810   -4.7070 C   0  0  0  0  0  0  0  0  0  0  0  0
    1.0360    5.4230   -4.1110 C   0  0  0  0  0  0  0  0  0  0  0  0
    3.1710    6.4820   -4.5330 C   0  0  0  0  0  0  0  0  0  0  0  0
    0.5820   -2.9730    2.8050 C   0  0  0  0  0  0  0  0  0  0  0  0
    3.7360    5.2350   -4.7890 C   0  0  0  0  0  0  0  0  0  0  0  0
    1.8220    6.5750   -4.1950 C   0  0  0  0  0  0  0  0  0  0  0  0
   -0.7010   -2.5300    2.4910 C   0  0  0  0  0  0  0  0  0  0  0  0
    1.6730   -2.5370    2.0550 C   0  0  0  0  0  0  0  0  0  0  0  0
    3.9850    7.5320   -4.6330 F   0  0  0  0  0  0  0  0  0  0  0  0
    0.8990   -3.8460    3.8220 O   0  0  0  0  0  0  0  0  0  0  0  0
   -0.1800   -4.3270    4.6170 C   0  0  0  0  0  0  0  0  0  0  0  0
    0.5030    2.4560    1.4350 C   0  0  0  0  0  0  0  0  0  0  0  0
   -1.0790    3.9310   -4.3590 H   0  0  0  0  0  0  0  0  0  0  0  0
   -1.2030    2.1560   -4.3040 H   0  0  0  0  0  0  0  0  0  0  0  0
   -1.1370    1.0930    1.5690 H   0  0  0  0  0  0  0  0  0  0  0  0
   -1.4560    2.5440    0.5870 H   0  0  0  0  0  0  0  0  0  0  0  0
    2.3290   -1.3230    0.4090 H   0  0  0  0  0  0  0  0  0  0  0  0
   -1.8920   -1.3090    1.1830 H   0  0  0  0  0  0  0  0  0  0  0  0
    3.3900    3.1130   -4.9070 H   0  0  0  0  0  0  0  0  0  0  0  0
   -0.0090    5.5000   -3.8500 H   0  0  0  0  0  0  0  0  0  0  0  0
    4.7810    5.1610   -5.0520 H   0  0  0  0  0  0  0  0  0  0  0  0
    1.3830    7.5420   -3.9970 H   0  0  0  0  0  0  0  0  0  0  0  0
   -1.5460   -2.8710    3.0700 H   0  0  0  0  0  0  0  0  0  0  0  0
    2.6670   -2.8840    2.2970 H   0  0  0  0  0  0  0  0  0  0  0  0
    0.2040   -5.0040    5.3800 H   0  0  0  0  0  0  0  0  0  0  0  0
   -0.8890   -4.8590    3.9830 H   0  0  0  0  0  0  0  0  0  0  0  0
   -0.6810   -3.4860    5.0970 H   0  0  0  0  0  0  0  0  0  0  0  0
    1.2490    1.7020    1.6850 H   0  0  0  0  0  0  0  0  0  0  0  0
    0.2130    2.9940    2.3380 H   0  0  0  0  0  0  0  0  0  0  0  0
    0.9230    3.1570    0.7140 H   0  0  0  0  0  0  0  0  0  0  0  0
  1  2  1  0  0  0  0
  1  4  1  0  0  0  0
  1 12  1  0  0  0  0
  2  3  2  0  0  0  0
  2  7  1  0  0  0  0
  3  5  1  0  0  0  0
  4  5  2  0  0  0  0
  4  6  1  0  0  0  0
  6 10  1  0  0  0  0
  7 13  1  0  0  0  0
  7 14  2  0  0  0  0
  8  9  1  0  0  0  0
  8 10  1  0  0  0  0
  8 11  2  0  0  0  0
  9 15  2  0  0  0  0
  9 16  1  0  0  0  0
 10 27  1  0  0  0  0
 10 28  1  0  0  0  0
 12 26  1  0  0  0  0
 12 29  1  0  0  0  0
 12 30  1  0  0  0  0
 13 22  2  0  0  0  0
 13 31  1  0  0  0  0
 14 21  1  0  0  0  0
 14 32  1  0  0  0  0
 15 19  1  0  0  0  0
 15 33  1  0  0  0  0
 16 20  2  0  0  0  0
 16 34  1  0  0  0  0
 17 19  2  0  0  0  0
 17 20  1  0  0  0  0
 17 23  1  0  0  0  0
 18 21  2  0  0  0  0
 18 22  1  0  0  0  0
 18 24  1  0  0  0  0
 19 35  1  0  0  0  0
 20 36  1  0  0  0  0
 21 37  1  0  0  0  0
 22 38  1  0  0  0  0
 24 25  1  0  0  0  0
 25 39  1  0  0  0  0
 25 40  1  0  0  0  0
 25 41  1  0  0  0  0
 26 42  1  0  0  0  0
 26 43  1  0  0  0  0
 26 44  1  0  0  0  0
M  END
>  <$CLUSTER>
123

>  <INDEX>
110320

$$$$
Bionet 10K-385S
  MOE2020           3D

 44 46  0  0  0  0  0  0  0  0999 V2000
    0.8850   -1.9880   -0.3130 S   0  0  0  0  0  0  0  0  0  0  0  0
   -0.4750   -0.9410   -0.4410 N   0  0  0  0  0  0  0  0  0  0  0  0
   -1.8320   -1.5110   -0.1850 C   0  0  0  0  0  0  0  0  0  0  0  0
   -2.8620   -0.8610   -1.0950 C   0  0  0  0  0  0  0  0  0  0  0  0
    2.1120   -1.2570   -0.5680 O   0  0  0  0  0  0  0  0  0  0  0  0
    0.6030   -3.2130   -1.0390 O   0  0  0  0  0  0  0  0  0  0  0  0
    0.8520   -2.3960    1.4200 C   0  0  0  0  0  0  0  0  0  0  0  0
   -6.2120    2.7420   -0.5380 C   0  0  0  0  0  0  0  0  0  0  0  0
   -0.2480    0.4440   -0.0860 C   0  0  0  0  0  0  0  0  0  0  0  0
   -5.1880    1.8960   -0.1060 C   0  0  0  0  0  0  0  0  0  0  0  0
   -3.5970    0.1260   -0.5090 N   0  0  0  0  0  0  0  0  0  0  0  0
   -4.6200    0.9560   -0.9780 C   0  0  0  0  0  0  0  0  0  0  0  0
   -6.6790    2.6590   -1.8450 C   0  0  0  0  0  0  0  0  0  0  0  0
   -3.0370   -1.1840   -2.2720 O   0  0  0  0  0  0  0  0  0  0  0  0
    0.3080    1.2970   -1.0460 C   0  0  0  0  0  0  0  0  0  0  0  0
   -0.4970    0.9210    1.2050 C   0  0  0  0  0  0  0  0  0  0  0  0
   -6.1220    1.7280   -2.7200 C   0  0  0  0  0  0  0  0  0  0  0  0
   -6.6840    3.6010    0.3680 F   0  0  0  0  0  0  0  0  0  0  0  0
   -5.0960    0.8780   -2.2910 C   0  0  0  0  0  0  0  0  0  0  0  0
    0.3150    3.1050    0.5560 C   0  0  0  0  0  0  0  0  0  0  0  0
   -7.6510    3.4260   -2.3390 F   0  0  0  0  0  0  0  0  0  0  0  0
    0.5820    2.6270   -0.7260 C   0  0  0  0  0  0  0  0  0  0  0  0
   -0.2220    2.2520    1.5210 C   0  0  0  0  0  0  0  0  0  0  0  0
    0.6490    4.7320    0.9310 Cl  0  0  0  0  0  0  0  0  0  0  0  0
    1.5660   -1.5990    2.3350 C   0  0  0  0  0  0  0  0  0  0  0  0
    0.1630   -3.5260    1.8730 C   0  0  0  0  0  0  0  0  0  0  0  0
    1.5690   -1.9310    3.6910 C   0  0  0  0  0  0  0  0  0  0  0  0
    0.1710   -3.8520    3.2300 C   0  0  0  0  0  0  0  0  0  0  0  0
    0.8730   -3.0550    4.1360 C   0  0  0  0  0  0  0  0  0  0  0  0
   -2.1070   -1.3310    0.8540 H   0  0  0  0  0  0  0  0  0  0  0  0
   -1.8120   -2.5840   -0.3750 H   0  0  0  0  0  0  0  0  0  0  0  0
   -4.8300    1.9670    0.9100 H   0  0  0  0  0  0  0  0  0  0  0  0
   -3.3540    0.2910    0.4570 H   0  0  0  0  0  0  0  0  0  0  0  0
    0.5250    0.9250   -2.0360 H   0  0  0  0  0  0  0  0  0  0  0  0
   -0.9020    0.2600    1.9570 H   0  0  0  0  0  0  0  0  0  0  0  0
   -6.4840    1.6620   -3.7350 H   0  0  0  0  0  0  0  0  0  0  0  0
   -4.6700    0.1600   -2.9760 H   0  0  0  0  0  0  0  0  0  0  0  0
    1.0010    3.2860   -1.4720 H   0  0  0  0  0  0  0  0  0  0  0  0
   -0.4250    2.6230    2.5150 H   0  0  0  0  0  0  0  0  0  0  0  0
    2.1100   -0.7330    1.9890 H   0  0  0  0  0  0  0  0  0  0  0  0
   -0.3760   -4.1470    1.1720 H   0  0  0  0  0  0  0  0  0  0  0  0
    2.1100   -1.3170    4.3960 H   0  0  0  0  0  0  0  0  0  0  0  0
   -0.3660   -4.7210    3.5790 H   0  0  0  0  0  0  0  0  0  0  0  0
    0.8770   -3.3100    5.1860 H   0  0  0  0  0  0  0  0  0  0  0  0
  1  2  1  0  0  0  0
  1  5  2  0  0  0  0
  1  6  2  0  0  0  0
  1  7  1  0  0  0  0
  2  3  1  0  0  0  0
  2  9  1  0  0  0  0
  3  4  1  0  0  0  0
  3 30  1  0  0  0  0
  3 31  1  0  0  0  0
  4 11  1  0  0  0  0
  4 14  2  0  0  0  0
  7 25  2  0  0  0  0
  7 26  1  0  0  0  0
  8 10  2  0  0  0  0
  8 13  1  0  0  0  0
  8 18  1  0  0  0  0
  9 15  2  0  0  0  0
  9 16  1  0  0  0  0
 10 12  1  0  0  0  0
 10 32  1  0  0  0  0
 11 12  1  0  0  0  0
 11 33  1  0  0  0  0
 12 19  2  0  0  0  0
 13 17  2  0  0  0  0
 13 21  1  0  0  0  0
 15 22  1  0  0  0  0
 15 34  1  0  0  0  0
 16 23  2  0  0  0  0
 16 35  1  0  0  0  0
 17 19  1  0  0  0  0
 17 36  1  0  0  0  0
 19 37  1  0  0  0  0
 20 22  2  0  0  0  0
 20 23  1  0  0  0  0
 20 24  1  0  0  0  0
 22 38  1  0  0  0  0
 23 39  1  0  0  0  0
 25 27  1  0  0  0  0
 25 40  1  0  0  0  0
 26 28  2  0  0  0  0
 26 41  1  0  0  0  0
 27 29  2  0  0  0  0
 27 42  1  0  0  0  0
 28 29  1  0  0  0  0
 28 43  1  0  0  0  0
 29 44  1  0  0  0  0
M  END
>  <$CLUSTER>
124

>  <INDEX>
7233

$$$$
Cerep CER0102355
  MOE2020           3D

 38 41  0  0  0  0  0  0  0  0999 V2000
    0.1280    2.8010   -0.1700 N   0  0  0  0  0  0  0  0  0  0  0  0
    0.5220    3.8300   -0.9700 C   0  0  0  0  0  0  0  0  0  0  0  0
    1.9050    4.3810   -0.7320 C   0  0  0  0  0  0  0  0  0  0  0  0
    5.6790    5.9720    0.1700 N   0  3  0  0  0  0  0  0  0  0  0  0
    2.8230    4.5040   -1.7430 C   0  0  0  0  0  0  0  0  0  0  0  0
   -1.1090    0.6880   -0.5100 C   0  0  0  0  0  0  0  0  0  0  0  0
    1.0050    0.6660    0.7130 C   0  0  0  0  0  0  0  0  0  0  0  0
   -1.1960    2.1840   -0.3080 C   0  0  0  0  0  0  0  0  0  0  0  0
    0.8980    2.1620    0.9030 C   0  0  0  0  0  0  0  0  0  0  0  0
    4.4030    5.4260   -0.1500 C   0  0  0  0  0  0  0  0  0  0  0  0
    4.0860    5.0370   -1.4520 C   0  0  0  0  0  0  0  0  0  0  0  0
   -0.0160   -0.0200    0.0280 C   0  0  0  0  0  0  0  0  0  0  0  0
    2.2040    4.7530    0.5850 C   0  0  0  0  0  0  0  0  0  0  0  0
    5.9510    6.3150    1.3340 O   0  5  0  0  0  0  0  0  0  0  0  0
    6.4720    6.0740   -0.7800 O   0  0  0  0  0  0  0  0  0  0  0  0
   -0.1780    4.3240   -1.8580 O   0  0  0  0  0  0  0  0  0  0  0  0
    3.4620    5.2830    0.8680 C   0  0  0  0  0  0  0  0  0  0  0  0
    0.0580   -1.4230   -0.1260 C   0  0  0  0  0  0  0  0  0  0  0  0
    2.5340    4.0020   -3.3710 Cl  0  0  0  0  0  0  0  0  0  0  0  0
    2.0790   -0.0440    1.2600 C   0  0  0  0  0  0  0  0  0  0  0  0
   -2.1290    0.0000   -1.1750 C   0  0  0  0  0  0  0  0  0  0  0  0
   -2.0550   -1.3830   -1.3290 C   0  0  0  0  0  0  0  0  0  0  0  0
    2.1550   -1.4270    1.1070 C   0  0  0  0  0  0  0  0  0  0  0  0
   -0.9700   -2.0910   -0.8110 C   0  0  0  0  0  0  0  0  0  0  0  0
    1.1540   -2.1130    0.4170 C   0  0  0  0  0  0  0  0  0  0  0  0
   -1.7020    2.6260   -1.1670 H   0  0  0  0  0  0  0  0  0  0  0  0
   -1.7720    2.3840    0.5950 H   0  0  0  0  0  0  0  0  0  0  0  0
    0.4060    2.3610    1.8550 H   0  0  0  0  0  0  0  0  0  0  0  0
    1.9020    2.5870    0.9170 H   0  0  0  0  0  0  0  0  0  0  0  0
    4.8170    5.1470   -2.2390 H   0  0  0  0  0  0  0  0  0  0  0  0
    1.4710    4.6310    1.3690 H   0  0  0  0  0  0  0  0  0  0  0  0
    3.7070    5.5830    1.8760 H   0  0  0  0  0  0  0  0  0  0  0  0
    2.8510    0.4810    1.8020 H   0  0  0  0  0  0  0  0  0  0  0  0
   -2.9760    0.5420   -1.5700 H   0  0  0  0  0  0  0  0  0  0  0  0
   -2.8410   -1.9090   -1.8510 H   0  0  0  0  0  0  0  0  0  0  0  0
    2.9910   -1.9700    1.5230 H   0  0  0  0  0  0  0  0  0  0  0  0
   -0.9200   -3.1620   -0.9380 H   0  0  0  0  0  0  0  0  0  0  0  0
    1.2230   -3.1840    0.3000 H   0  0  0  0  0  0  0  0  0  0  0  0
  1  2  1  0  0  0  0
  1  8  1  0  0  0  0
  1  9  1  0  0  0  0
  2  3  1  0  0  0  0
  2 16  2  0  0  0  0
  3  5  1  0  0  0  0
  3 13  2  0  0  0  0
  4 10  1  0  0  0  0
  4 14  1  0  0  0  0
  4 15  2  0  0  0  0
  5 11  2  0  0  0  0
  5 19  1  0  0  0  0
  6  8  1  0  0  0  0
  6 12  2  0  0  0  0
  6 21  1  0  0  0  0
  7  9  1  0  0  0  0
  7 12  1  0  0  0  0
  7 20  2  0  0  0  0
  8 26  1  0  0  0  0
  8 27  1  0  0  0  0
  9 28  1  0  0  0  0
  9 29  1  0  0  0  0
 10 11  1  0  0  0  0
 10 17  2  0  0  0  0
 11 30  1  0  0  0  0
 12 18  1  0  0  0  0
 13 17  1  0  0  0  0
 13 31  1  0  0  0  0
 17 32  1  0  0  0  0
 18 24  2  0  0  0  0
 18 25  1  0  0  0  0
 20 23  1  0  0  0  0
 20 33  1  0  0  0  0
 21 22  2  0  0  0  0
 21 34  1  0  0  0  0
 22 24  1  0  0  0  0
 22 35  1  0  0  0  0
 23 25  2  0  0  0  0
 23 36  1  0  0  0  0
 24 37  1  0  0  0  0
 25 38  1  0  0  0  0
M  CHG  1   4   1
M  CHG  1  14  -1
M  END
>  <$CLUSTER>
125

>  <INDEX>
187551

$$$$
Chembridge 7634772
  MOE2020           3D

 48 52  0  0  0  0  0  0  0  0999 V2000
   -0.7500    0.7630    1.4090 C   0  0  0  0  0  0  0  0  0  0  0  0
    0.0270    0.4290    0.3020 N   0  0  0  0  0  0  0  0  0  0  0  0
    0.7010    1.6030    0.0030 C   0  0  0  0  0  0  0  0  0  0  0  0
   -0.5320    2.0240    1.7330 N   0  0  0  0  0  0  0  0  0  0  0  0
   -3.0090    0.0170    1.9190 N   0  0  0  0  0  0  0  0  0  0  0  0
    0.3750    2.5460    0.8560 N   0  0  0  0  0  0  0  0  0  0  0  0
   -4.9860   -0.3550    0.9660 N   0  0  0  0  0  0  0  0  0  0  0  0
   -3.7270   -0.7280    1.0190 C   0  0  0  0  0  0  0  0  0  0  0  0
   -1.5930   -0.1610    2.2210 C   0  0  0  0  0  0  0  0  0  0  0  0
   -3.8710    0.9200    2.4960 C   0  0  0  0  0  0  0  0  0  0  0  0
    1.6810    1.8520   -1.4110 S   0  0  0  0  0  0  0  0  0  0  0  0
   -5.0950    0.6690    1.8780 C   0  0  0  0  0  0  0  0  0  0  0  0
    0.1040   -0.8280   -0.3530 C   0  0  0  0  0  0  0  0  0  0  0  0
    3.2280    3.6970   -0.0320 C   0  0  0  0  0  0  0  0  0  0  0  0
    2.2280    3.5570   -1.1770 C   0  0  0  0  0  0  0  0  0  0  0  0
    2.7850    3.9730    1.2580 C   0  0  0  0  0  0  0  0  0  0  0  0
    1.4770    4.1480    1.5020 F   0  0  0  0  0  0  0  0  0  0  0  0
   -3.7030    1.9150    3.4660 C   0  0  0  0  0  0  0  0  0  0  0  0
    4.5950    3.5100   -0.2560 C   0  0  0  0  0  0  0  0  0  0  0  0
   -6.2170    1.4370    2.2330 C   0  0  0  0  0  0  0  0  0  0  0  0
   -1.0630   -1.5530   -0.6210 C   0  0  0  0  0  0  0  0  0  0  0  0
    1.3470   -1.3520   -0.7300 C   0  0  0  0  0  0  0  0  0  0  0  0
    3.6800    4.0860    2.3180 C   0  0  0  0  0  0  0  0  0  0  0  0
   -4.8310    2.6690    3.8060 C   0  0  0  0  0  0  0  0  0  0  0  0
    5.5000    3.6210    0.8020 C   0  0  0  0  0  0  0  0  0  0  0  0
   -6.0670    2.4370    3.2010 C   0  0  0  0  0  0  0  0  0  0  0  0
    5.0440    3.9090    2.0890 C   0  0  0  0  0  0  0  0  0  0  0  0
    1.4170   -2.5910   -1.3710 C   0  0  0  0  0  0  0  0  0  0  0  0
   -0.9840   -2.7900   -1.2650 C   0  0  0  0  0  0  0  0  0  0  0  0
    0.2540   -3.3090   -1.6400 C   0  0  0  0  0  0  0  0  0  0  0  0
   -3.3080   -1.5260    0.4250 H   0  0  0  0  0  0  0  0  0  0  0  0
   -1.4260    0.0420    3.2790 H   0  0  0  0  0  0  0  0  0  0  0  0
   -1.3080   -1.1900    2.0000 H   0  0  0  0  0  0  0  0  0  0  0  0
    1.3580    4.1770   -0.9590 H   0  0  0  0  0  0  0  0  0  0  0  0
    2.6990    3.9030   -2.0970 H   0  0  0  0  0  0  0  0  0  0  0  0
   -2.7450    2.0930    3.9310 H   0  0  0  0  0  0  0  0  0  0  0  0
    4.9520    3.2790   -1.2490 H   0  0  0  0  0  0  0  0  0  0  0  0
   -7.1760    1.2590    1.7680 H   0  0  0  0  0  0  0  0  0  0  0  0
   -2.0240   -1.1560   -0.3300 H   0  0  0  0  0  0  0  0  0  0  0  0
    2.2510   -0.7980   -0.5250 H   0  0  0  0  0  0  0  0  0  0  0  0
    3.3200    4.3090    3.3120 H   0  0  0  0  0  0  0  0  0  0  0  0
   -4.7440    3.4460    4.5510 H   0  0  0  0  0  0  0  0  0  0  0  0
    6.5560    3.4830    0.6230 H   0  0  0  0  0  0  0  0  0  0  0  0
   -6.9190    3.0370    3.4830 H   0  0  0  0  0  0  0  0  0  0  0  0
    5.7460    3.9950    2.9060 H   0  0  0  0  0  0  0  0  0  0  0  0
    2.3770   -2.9940   -1.6590 H   0  0  0  0  0  0  0  0  0  0  0  0
   -1.8860   -3.3470   -1.4730 H   0  0  0  0  0  0  0  0  0  0  0  0
    0.3110   -4.2660   -2.1380 H   0  0  0  0  0  0  0  0  0  0  0  0
  1  2  1  0  0  0  0
  1  4  2  0  0  0  0
  1  9  1  0  0  0  0
  2  3  1  0  0  0  0
  2 13  1  0  0  0  0
  3  6  2  0  0  0  0
  3 11  1  0  0  0  0
  4  6  1  0  0  0  0
  5  8  1  0  0  0  0
  5  9  1  0  0  0  0
  5 10  1  0  0  0  0
  7  8  2  0  0  0  0
  7 12  1  0  0  0  0
  8 31  1  0  0  0  0
  9 32  1  0  0  0  0
  9 33  1  0  0  0  0
 10 12  2  0  0  0  0
 10 18  1  0  0  0  0
 11 15  1  0  0  0  0
 12 20  1  0  0  0  0
 13 21  1  0  0  0  0
 13 22  2  0  0  0  0
 14 15  1  0  0  0  0
 14 16  2  0  0  0  0
 14 19  1  0  0  0  0
 15 34  1  0  0  0  0
 15 35  1  0  0  0  0
 16 17  1  0  0  0  0
 16 23  1  0  0  0  0
 18 24  2  0  0  0  0
 18 36  1  0  0  0  0
 19 25  2  0  0  0  0
 19 37  1  0  0  0  0
 20 26  2  0  0  0  0
 20 38  1  0  0  0  0
 21 29  2  0  0  0  0
 21 39  1  0  0  0  0
 22 28  1  0  0  0  0
 22 40  1  0  0  0  0
 23 27  2  0  0  0  0
 23 41  1  0  0  0  0
 24 26  1  0  0  0  0
 24 42  1  0  0  0  0
 25 27  1  0  0  0  0
 25 43  1  0  0  0  0
 26 44  1  0  0  0  0
 27 45  1  0  0  0  0
 28 30  2  0  0  0  0
 28 46  1  0  0  0  0
 29 30  1  0  0  0  0
 29 47  1  0  0  0  0
 30 48  1  0  0  0  0
M  END
>  <$CLUSTER>
126

>  <INDEX>
81402

$$$$
InterBioScreen STOCK4S-11574
  MOE2020           3D

 39 41  0  0  0  0  0  0  0  0999 V2000
   -0.2940   -1.8820    0.7400 C   0  0  0  0  0  0  0  0  0  0  0  0
    1.0030   -2.3840    1.2840 C   0  0  0  0  0  0  0  0  0  0  0  0
   -1.1680   -2.7230    0.1830 C   0  0  0  0  0  0  0  0  0  0  0  0
    1.2300   -3.7410    1.2380 O   0  0  0  0  0  0  0  0  0  0  0  0
    0.2700   -4.5780    0.6730 C   0  0  0  0  0  0  0  0  0  0  0  0
   -0.8770   -4.1390    0.1620 C   0  0  0  0  0  0  0  0  0  0  0  0
    0.6670   -5.9910    0.7040 C   0  0  0  0  0  0  0  0  0  0  0  0
   -0.4810   -0.3790    0.8200 C   0  0  0  0  0  0  0  0  0  0  0  0
   -1.7590   -5.1480   -0.3920 C   0  0  0  0  0  0  0  0  0  0  0  0
    0.1350    0.4200   -0.3320 C   0  0  0  0  0  0  0  0  0  0  0  0
    1.2660  -10.2480    0.5030 C   0  0  0  0  0  0  0  0  0  0  0  0
    1.8390   -1.6300    1.7740 O   0  0  0  0  0  0  0  0  0  0  0  0
    2.5260  -10.8950    0.4710 C   0  0  0  0  0  0  0  0  0  0  0  0
    1.2380   -8.7390    0.6660 C   0  0  0  0  0  0  0  0  0  0  0  0
   -0.0350    1.6700   -0.2410 O   0  0  0  0  0  0  0  0  0  0  0  0
   -0.2100   -6.9270    0.1640 C   0  0  0  0  0  0  0  0  0  0  0  0
    0.0100   -8.2600    0.1170 O   0  0  0  0  0  0  0  0  0  0  0  0
   -1.4210   -6.5060   -0.3830 C   0  0  0  0  0  0  0  0  0  0  0  0
   -2.4840   -2.3530   -0.4450 C   0  0  0  0  0  0  0  0  0  0  0  0
    3.6520  -10.1670    0.5290 F   0  0  0  0  0  0  0  0  0  0  0  0
    0.7300   -0.2430   -1.2250 O   0  5  0  0  0  0  0  0  0  0  0  0
    0.1290  -11.0550    0.4810 C   0  0  0  0  0  0  0  0  0  0  0  0
    2.6340  -12.2790    0.3750 C   0  0  0  0  0  0  0  0  0  0  0  0
    0.2280  -12.4460    0.3840 C   0  0  0  0  0  0  0  0  0  0  0  0
    1.4790  -13.0580    0.3280 C   0  0  0  0  0  0  0  0  0  0  0  0
    1.6110   -6.2950    1.1330 H   0  0  0  0  0  0  0  0  0  0  0  0
   -0.0290   -0.0330    1.7490 H   0  0  0  0  0  0  0  0  0  0  0  0
   -1.5510   -0.1730    0.8380 H   0  0  0  0  0  0  0  0  0  0  0  0
   -2.7010   -4.8430   -0.8230 H   0  0  0  0  0  0  0  0  0  0  0  0
    2.0790   -8.2940    0.1350 H   0  0  0  0  0  0  0  0  0  0  0  0
    1.2970   -8.4800    1.7230 H   0  0  0  0  0  0  0  0  0  0  0  0
   -2.1020   -7.2320   -0.8020 H   0  0  0  0  0  0  0  0  0  0  0  0
   -2.9760   -3.2530   -0.8140 H   0  0  0  0  0  0  0  0  0  0  0  0
   -2.3110   -1.6680   -1.2750 H   0  0  0  0  0  0  0  0  0  0  0  0
   -3.1180   -1.8700    0.2980 H   0  0  0  0  0  0  0  0  0  0  0  0
   -0.8470  -10.5960    0.5400 H   0  0  0  0  0  0  0  0  0  0  0  0
    3.6070  -12.7470    0.3370 H   0  0  0  0  0  0  0  0  0  0  0  0
   -0.6680  -13.0480    0.3520 H   0  0  0  0  0  0  0  0  0  0  0  0
    1.5530  -14.1330    0.2480 H   0  0  0  0  0  0  0  0  0  0  0  0
  1  2  1  0  0  0  0
  1  3  2  0  0  0  0
  1  8  1  0  0  0  0
  2  4  1  0  0  0  0
  2 12  2  0  0  0  0
  3  6  1  0  0  0  0
  3 19  1  0  0  0  0
  4  5  1  0  0  0  0
  5  6  2  0  0  0  0
  5  7  1  0  0  0  0
  6  9  1  0  0  0  0
  7 16  2  0  0  0  0
  7 26  1  0  0  0  0
  8 10  1  0  0  0  0
  8 27  1  0  0  0  0
  8 28  1  0  0  0  0
  9 18  2  0  0  0  0
  9 29  1  0  0  0  0
 10 15  2  0  0  0  0
 10 21  1  0  0  0  0
 11 13  2  0  0  0  0
 11 14  1  0  0  0  0
 11 22  1  0  0  0  0
 13 20  1  0  0  0  0
 13 23  1  0  0  0  0
 14 17  1  0  0  0  0
 14 30  1  0  0  0  0
 14 31  1  0  0  0  0
 16 17  1  0  0  0  0
 16 18  1  0  0  0  0
 18 32  1  0  0  0  0
 19 33  1  0  0  0  0
 19 34  1  0  0  0  0
 19 35  1  0  0  0  0
 22 24  2  0  0  0  0
 22 36  1  0  0  0  0
 23 25  2  0  0  0  0
 23 37  1  0  0  0  0
 24 25  1  0  0  0  0
 24 38  1  0  0  0  0
 25 39  1  0  0  0  0
M  CHG  1  21  -1
M  END
>  <$CLUSTER>
127

>  <INDEX>
350040

$$$$
Chembridge 5364857
  MOE2020           3D

 35 37  0  0  0  0  0  0  0  0999 V2000
    0.4860    1.1570    1.3230 N   0  0  0  0  0  0  0  0  0  0  0  0
   -0.2930   -0.1730   -0.2720 N   0  0  0  0  0  0  0  0  0  0  0  0
   -0.4780    0.3290    0.9860 C   0  0  0  0  0  0  0  0  0  0  0  0
    1.3220    1.1860    0.2340 C   0  0  0  0  0  0  0  0  0  0  0  0
    0.8570    0.3680   -0.7700 C   0  0  0  0  0  0  0  0  0  0  0  0
   -2.1290   -8.2920   -1.8800 C   0  0  0  0  0  0  0  0  0  0  0  0
   -1.4990   -7.1580   -1.3660 C   0  0  0  0  0  0  0  0  0  0  0  0
   -3.2290   -8.1540   -2.7230 C   0  0  0  0  0  0  0  0  0  0  0  0
   -3.6950   -6.8820   -3.0510 C   0  0  0  0  0  0  0  0  0  0  0  0
   -1.9620   -5.8780   -1.6890 C   0  0  0  0  0  0  0  0  0  0  0  0
   -3.0650   -5.7450   -2.5350 C   0  0  0  0  0  0  0  0  0  0  0  0
   -1.1650   -1.1050   -0.9540 C   0  0  0  0  0  0  0  0  0  0  0  0
   -0.7800   -2.5500   -0.6930 C   0  0  0  0  0  0  0  0  0  0  0  0
   -1.2640   -4.8510   -1.1260 O   0  0  0  0  0  0  0  0  0  0  0  0
   -1.6580   -9.5860   -1.5500 C   0  0  0  0  0  0  0  0  0  0  0  0
   -1.6830   -3.5270   -1.4140 C   0  0  0  0  0  0  0  0  0  0  0  0
   -3.8630   -9.3060   -3.2410 C   0  0  0  0  0  0  0  0  0  0  0  0
   -2.2920  -10.7160   -2.0670 C   0  0  0  0  0  0  0  0  0  0  0  0
   -3.3910  -10.5760   -2.9100 C   0  0  0  0  0  0  0  0  0  0  0  0
   -1.3120    0.0770    1.6240 H   0  0  0  0  0  0  0  0  0  0  0  0
    2.2260    1.7740    0.1730 H   0  0  0  0  0  0  0  0  0  0  0  0
    1.3030    0.1930   -1.7380 H   0  0  0  0  0  0  0  0  0  0  0  0
   -0.6460   -7.2690   -0.7130 H   0  0  0  0  0  0  0  0  0  0  0  0
   -4.5460   -6.7740   -3.7070 H   0  0  0  0  0  0  0  0  0  0  0  0
   -3.4320   -4.7620   -2.7910 H   0  0  0  0  0  0  0  0  0  0  0  0
   -1.1110   -0.9160   -2.0260 H   0  0  0  0  0  0  0  0  0  0  0  0
   -2.1870   -0.9460   -0.6080 H   0  0  0  0  0  0  0  0  0  0  0  0
   -0.8420   -2.7410    0.3780 H   0  0  0  0  0  0  0  0  0  0  0  0
    0.2450   -2.7060   -1.0310 H   0  0  0  0  0  0  0  0  0  0  0  0
   -0.8060   -9.6980   -0.8960 H   0  0  0  0  0  0  0  0  0  0  0  0
   -1.6250   -3.3520   -2.4880 H   0  0  0  0  0  0  0  0  0  0  0  0
   -2.7110   -3.3890   -1.0780 H   0  0  0  0  0  0  0  0  0  0  0  0
   -4.7160   -9.2030   -3.8950 H   0  0  0  0  0  0  0  0  0  0  0  0
   -1.9300  -11.7010   -1.8130 H   0  0  0  0  0  0  0  0  0  0  0  0
   -3.8790  -11.4530   -3.3090 H   0  0  0  0  0  0  0  0  0  0  0  0
  1  3  2  0  0  0  0
  1  4  1  0  0  0  0
  2  3  1  0  0  0  0
  2  5  1  0  0  0  0
  2 12  1  0  0  0  0
  3 20  1  0  0  0  0
  4  5  2  0  0  0  0
  4 21  1  0  0  0  0
  5 22  1  0  0  0  0
  6  7  1  0  0  0  0
  6  8  2  0  0  0  0
  6 15  1  0  0  0  0
  7 10  2  0  0  0  0
  7 23  1  0  0  0  0
  8  9  1  0  0  0  0
  8 17  1  0  0  0  0
  9 11  2  0  0  0  0
  9 24  1  0  0  0  0
 10 11  1  0  0  0  0
 10 14  1  0  0  0  0
 11 25  1  0  0  0  0
 12 13  1  0  0  0  0
 12 26  1  0  0  0  0
 12 27  1  0  0  0  0
 13 16  1  0  0  0  0
 13 28  1  0  0  0  0
 13 29  1  0  0  0  0
 14 16  1  0  0  0  0
 15 18  2  0  0  0  0
 15 30  1  0  0  0  0
 16 31  1  0  0  0  0
 16 32  1  0  0  0  0
 17 19  2  0  0  0  0
 17 33  1  0  0  0  0
 18 19  1  0  0  0  0
 18 34  1  0  0  0  0
 19 35  1  0  0  0  0
M  END
>  <$CLUSTER>
128

>  <INDEX>
43403

$$$$
Chembridge 7714118
  MOE2020           3D

 31 32  0  0  0  0  0  0  0  0999 V2000
    1.3500    1.3650    0.1840 N   0  0  0  0  0  0  0  0  0  0  0  0
   -0.5140    0.3300    1.0130 N   0  0  0  0  0  0  0  0  0  0  0  0
   -0.2120   -0.1080   -0.2220 N   0  0  0  0  0  0  0  0  0  0  0  0
    0.4620    1.2190    1.2110 C   0  0  0  0  0  0  0  0  0  0  0  0
    0.8970    0.5130   -0.7080 C   0  0  0  0  0  0  0  0  0  0  0  0
   -1.4410   -6.1220   -3.2000 C   0  0  0  0  0  0  0  0  0  0  0  0
   -0.4340   -6.0860   -5.8090 C   0  0  0  0  0  0  0  0  0  0  0  0
   -2.1360   -6.2280   -1.5260 S   0  0  0  0  0  0  0  0  0  0  0  0
    0.1910   -6.0740   -7.3920 Cl  0  0  0  0  0  0  0  0  0  0  0  0
   -1.1370   -4.9120   -3.8140 C   0  0  0  0  0  0  0  0  0  0  0  0
   -1.2650   -7.3210   -3.9060 C   0  0  0  0  0  0  0  0  0  0  0  0
   -0.6270   -4.8930   -5.1160 C   0  0  0  0  0  0  0  0  0  0  0  0
   -0.7550   -7.2990   -5.2060 C   0  0  0  0  0  0  0  0  0  0  0  0
   -1.0220   -1.1110   -0.8720 C   0  0  0  0  0  0  0  0  0  0  0  0
   -1.1240   -4.9790   -0.6830 C   0  0  0  0  0  0  0  0  0  0  0  0
   -0.6560   -2.5180   -0.4360 C   0  0  0  0  0  0  0  0  0  0  0  0
   -1.4960   -3.5730   -1.1240 C   0  0  0  0  0  0  0  0  0  0  0  0
    0.5440    1.7870    2.1260 H   0  0  0  0  0  0  0  0  0  0  0  0
    1.3370    0.3330   -1.6780 H   0  0  0  0  0  0  0  0  0  0  0  0
   -1.2950   -3.9840   -3.2840 H   0  0  0  0  0  0  0  0  0  0  0  0
   -1.5240   -8.2620   -3.4440 H   0  0  0  0  0  0  0  0  0  0  0  0
   -0.3820   -3.9520   -5.5850 H   0  0  0  0  0  0  0  0  0  0  0  0
   -0.6090   -8.2240   -5.7440 H   0  0  0  0  0  0  0  0  0  0  0  0
   -0.8820   -1.0300   -1.9500 H   0  0  0  0  0  0  0  0  0  0  0  0
   -2.0680   -0.9290   -0.6270 H   0  0  0  0  0  0  0  0  0  0  0  0
   -0.0740   -5.1570   -0.9160 H   0  0  0  0  0  0  0  0  0  0  0  0
   -1.2780   -5.0650    0.3930 H   0  0  0  0  0  0  0  0  0  0  0  0
   -0.8040   -2.6000    0.6410 H   0  0  0  0  0  0  0  0  0  0  0  0
    0.3930   -2.6960   -0.6730 H   0  0  0  0  0  0  0  0  0  0  0  0
   -2.5450   -3.3960   -0.8870 H   0  0  0  0  0  0  0  0  0  0  0  0
   -1.3490   -3.4920   -2.2010 H   0  0  0  0  0  0  0  0  0  0  0  0
  1  4  1  0  0  0  0
  1  5  2  0  0  0  0
  2  3  1  0  0  0  0
  2  4  2  0  0  0  0
  3  5  1  0  0  0  0
  3 14  1  0  0  0  0
  4 18  1  0  0  0  0
  5 19  1  0  0  0  0
  6  8  1  0  0  0  0
  6 10  2  0  0  0  0
  6 11  1  0  0  0  0
  7  9  1  0  0  0  0
  7 12  2  0  0  0  0
  7 13  1  0  0  0  0
  8 15  1  0  0  0  0
 10 12  1  0  0  0  0
 10 20  1  0  0  0  0
 11 13  2  0  0  0  0
 11 21  1  0  0  0  0
 12 22  1  0  0  0  0
 13 23  1  0  0  0  0
 14 16  1  0  0  0  0
 14 24  1  0  0  0  0
 14 25  1  0  0  0  0
 15 17  1  0  0  0  0
 15 26  1  0  0  0  0
 15 27  1  0  0  0  0
 16 17  1  0  0  0  0
 16 28  1  0  0  0  0
 16 29  1  0  0  0  0
 17 30  1  0  0  0  0
 17 31  1  0  0  0  0
M  END
>  <$CLUSTER>
129

>  <INDEX>
83485

$$$$
Asinex BAS 05600391
  MOE2020           3D

 49 51  0  0  0  0  0  0  0  0999 V2000
   -1.8210   -0.2080    0.0710 S   0  0  0  0  0  0  0  0  0  0  0  0
   -0.3400   -1.0330    0.1540 N   0  0  0  0  0  0  0  0  0  0  0  0
    0.8020   -0.2980    0.0690 C   0  0  0  0  0  0  0  0  0  0  0  0
    0.8140    1.0050   -0.0730 N   0  0  0  0  0  0  0  0  0  0  0  0
   -2.9370   -1.5810    0.2250 C   0  0  0  0  0  0  0  0  0  0  0  0
    2.3110   -1.0870    0.1490 S   0  0  0  0  0  0  0  0  0  0  0  0
   -1.9970    0.3430   -1.2590 O   0  0  0  0  0  0  0  0  0  0  0  0
   -1.9870    0.6160    1.2530 O   0  0  0  0  0  0  0  0  0  0  0  0
   -6.3360   -5.5300   -0.3050 C   0  0  0  0  0  0  0  0  0  0  0  0
   -5.7450   -4.7200    0.6570 N   0  0  0  0  0  0  0  0  0  0  0  0
    2.1290    1.4280   -0.1250 C   0  0  0  0  0  0  0  0  0  0  0  0
    3.0830    0.4370   -0.0210 C   0  0  0  0  0  0  0  0  0  0  0  0
   -6.1690   -5.5050   -1.5200 O   0  0  0  0  0  0  0  0  0  0  0  0
   -3.4110   -2.2480   -0.9250 C   0  0  0  0  0  0  0  0  0  0  0  0
   -3.4450   -1.9560    1.4850 C   0  0  0  0  0  0  0  0  0  0  0  0
   -4.7990   -3.6710    0.4510 C   0  0  0  0  0  0  0  0  0  0  0  0
   -7.2790   -6.5240    0.3250 C   0  0  0  0  0  0  0  0  0  0  0  0
   -4.3600   -3.0040    1.5950 C   0  0  0  0  0  0  0  0  0  0  0  0
   -4.3270   -3.2950   -0.8070 C   0  0  0  0  0  0  0  0  0  0  0  0
   -7.9650   -7.4440   -0.6730 C   0  0  0  0  0  0  0  0  0  0  0  0
   -8.9000   -8.4260   -0.0180 C   0  0  0  0  0  0  0  0  0  0  0  0
  -10.0870   -7.7610    0.6940 C   0  0  0  0  0  0  0  0  0  0  0  0
   -9.4500   -9.4170   -1.0710 C   0  0  0  0  0  0  0  0  0  0  0  0
  -11.0580   -8.7390    1.2960 C   0  0  0  0  0  0  0  0  0  0  0  0
  -10.4320  -10.4260   -0.4740 C   0  0  0  0  0  0  0  0  0  0  0  0
  -11.5750   -9.7200    0.2480 C   0  0  0  0  0  0  0  0  0  0  0  0
   -0.3070   -2.0370    0.2630 H   0  0  0  0  0  0  0  0  0  0  0  0
   -6.0170   -4.8940    1.6140 H   0  0  0  0  0  0  0  0  0  0  0  0
    2.3930    2.4690   -0.2400 H   0  0  0  0  0  0  0  0  0  0  0  0
    4.1510    0.5950   -0.0430 H   0  0  0  0  0  0  0  0  0  0  0  0
   -3.0630   -1.9470   -1.9020 H   0  0  0  0  0  0  0  0  0  0  0  0
   -3.1240   -1.4290    2.3710 H   0  0  0  0  0  0  0  0  0  0  0  0
   -8.0470   -5.9720    0.8670 H   0  0  0  0  0  0  0  0  0  0  0  0
   -6.7120   -7.1390    1.0240 H   0  0  0  0  0  0  0  0  0  0  0  0
   -4.7290   -3.2990    2.5660 H   0  0  0  0  0  0  0  0  0  0  0  0
   -4.6700   -3.8140   -1.6900 H   0  0  0  0  0  0  0  0  0  0  0  0
   -7.2010   -8.0000   -1.2160 H   0  0  0  0  0  0  0  0  0  0  0  0
   -8.5360   -6.8340   -1.3730 H   0  0  0  0  0  0  0  0  0  0  0  0
   -8.3100   -8.9420    0.7390 H   0  0  0  0  0  0  0  0  0  0  0  0
  -10.6220   -7.1470   -0.0300 H   0  0  0  0  0  0  0  0  0  0  0  0
   -9.6990   -7.1270    1.4910 H   0  0  0  0  0  0  0  0  0  0  0  0
   -8.6130   -9.9610   -1.5080 H   0  0  0  0  0  0  0  0  0  0  0  0
   -9.9620   -8.8510   -1.8490 H   0  0  0  0  0  0  0  0  0  0  0  0
  -11.9010   -8.1900    1.7160 H   0  0  0  0  0  0  0  0  0  0  0  0
  -10.5570   -9.2960    2.0880 H   0  0  0  0  0  0  0  0  0  0  0  0
   -9.9020  -11.0620    0.2350 H   0  0  0  0  0  0  0  0  0  0  0  0
  -10.8430  -11.0400   -1.2760 H   0  0  0  0  0  0  0  0  0  0  0  0
  -12.1720   -9.1740   -0.4830 H   0  0  0  0  0  0  0  0  0  0  0  0
  -12.1980  -10.4670    0.7400 H   0  0  0  0  0  0  0  0  0  0  0  0
  1  2  1  0  0  0  0
  1  5  1  0  0  0  0
  1  7  2  0  0  0  0
  1  8  2  0  0  0  0
  2  3  1  0  0  0  0
  2 27  1  0  0  0  0
  3  4  2  0  0  0  0
  3  6  1  0  0  0  0
  4 11  1  0  0  0  0
  5 14  1  0  0  0  0
  5 15  2  0  0  0  0
  6 12  1  0  0  0  0
  9 10  1  0  0  0  0
  9 13  2  0  0  0  0
  9 17  1  0  0  0  0
 10 16  1  0  0  0  0
 10 28  1  0  0  0  0
 11 12  2  0  0  0  0
 11 29  1  0  0  0  0
 12 30  1  0  0  0  0
 14 19  2  0  0  0  0
 14 31  1  0  0  0  0
 15 18  1  0  0  0  0
 15 32  1  0  0  0  0
 16 18  2  0  0  0  0
 16 19  1  0  0  0  0
 17 20  1  0  0  0  0
 17 33  1  0  0  0  0
 17 34  1  0  0  0  0
 18 35  1  0  0  0  0
 19 36  1  0  0  0  0
 20 21  1  0  0  0  0
 20 37  1  0  0  0  0
 20 38  1  0  0  0  0
 21 22  1  0  0  0  0
 21 23  1  0  0  0  0
 21 39  1  0  0  0  0
 22 24  1  0  0  0  0
 22 40  1  0  0  0  0
 22 41  1  0  0  0  0
 23 25  1  0  0  0  0
 23 42  1  0  0  0  0
 23 43  1  0  0  0  0
 24 26  1  0  0  0  0
 24 44  1  0  0  0  0
 24 45  1  0  0  0  0
 25 26  1  0  0  0  0
 25 46  1  0  0  0  0
 25 47  1  0  0  0  0
 26 48  1  0  0  0  0
 26 49  1  0  0  0  0
M  END
>  <$CLUSTER>
130

>  <INDEX>
181902

$$$$
Asinex ASN 03271166
  MOE2020           3D

 60 62  0  0  0  0  0  0  0  0999 V2000
    0.7120    1.9090   -1.5270 C   0  0  0  0  0  0  0  0  0  0  0  0
   -3.2260   -3.4260    2.4240 C   0  0  0  0  0  0  0  0  0  0  0  0
   -0.3180    0.1950    0.0110 C   0  0  0  0  0  0  0  0  0  0  0  0
   -2.1920   -1.7050    0.8770 C   0  0  0  0  0  0  0  0  0  0  0  0
    0.6640    1.1450   -0.3690 N   0  0  0  0  0  0  0  0  0  0  0  0
   -3.1780   -2.6620    1.2660 N   0  0  0  0  0  0  0  0  0  0  0  0
   -1.0870   -1.4080    1.6730 C   0  0  0  0  0  0  0  0  0  0  0  0
   -1.4330   -0.1150   -0.7770 C   0  0  0  0  0  0  0  0  0  0  0  0
   -2.3650   -1.0610   -0.3440 C   0  0  0  0  0  0  0  0  0  0  0  0
   -0.1460   -0.4610    1.2500 C   0  0  0  0  0  0  0  0  0  0  0  0
    1.9290    2.7990   -1.5420 C   0  0  0  0  0  0  0  0  0  0  0  0
   -4.4440   -4.3150    2.4400 C   0  0  0  0  0  0  0  0  0  0  0  0
   -0.0850    1.9200   -2.4600 O   0  0  0  0  0  0  0  0  0  0  0  0
   -2.4290   -3.4380    3.3570 O   0  0  0  0  0  0  0  0  0  0  0  0
    2.3830    3.2140   -2.8320 C   0  0  0  0  0  0  0  0  0  0  0  0
   -4.3510   -5.4870    3.2540 C   0  0  0  0  0  0  0  0  0  0  0  0
   -5.6250   -4.0410    1.7920 C   0  0  0  0  0  0  0  0  0  0  0  0
    0.9720   -0.1040    1.9670 O   0  0  0  0  0  0  0  0  0  0  0  0
   -3.4860   -1.4140   -1.0700 O   0  0  0  0  0  0  0  0  0  0  0  0
    3.4900    4.0580   -2.9380 C   0  0  0  0  0  0  0  0  0  0  0  0
   -5.4410   -6.3540    3.3450 C   0  0  0  0  0  0  0  0  0  0  0  0
   -6.7140   -4.9120    1.8880 C   0  0  0  0  0  0  0  0  0  0  0  0
   -6.6220   -6.0680    2.6610 C   0  0  0  0  0  0  0  0  0  0  0  0
    2.5680    3.2750   -0.4210 C   0  0  0  0  0  0  0  0  0  0  0  0
    3.6740    4.1220   -0.5330 C   0  0  0  0  0  0  0  0  0  0  0  0
    4.1360    4.5110   -1.7890 C   0  0  0  0  0  0  0  0  0  0  0  0
    1.1770   -0.7450    3.2200 C   0  0  0  0  0  0  0  0  0  0  0  0
   -3.6910   -0.7730   -2.3230 C   0  0  0  0  0  0  0  0  0  0  0  0
    3.9840    4.4780   -4.2840 C   0  0  0  0  0  0  0  0  0  0  0  0
   -7.7850   -7.0000    2.7590 C   0  0  0  0  0  0  0  0  0  0  0  0
   -4.9280   -1.2490   -2.9850 C   0  0  0  0  0  0  0  0  0  0  0  0
    2.4170   -0.2650    3.8820 C   0  0  0  0  0  0  0  0  0  0  0  0
    1.4220    1.2830    0.2840 H   0  0  0  0  0  0  0  0  0  0  0  0
   -3.9380   -2.8010    0.6150 H   0  0  0  0  0  0  0  0  0  0  0  0
   -0.9560   -1.9100    2.6200 H   0  0  0  0  0  0  0  0  0  0  0  0
   -1.5730    0.3810   -1.7260 H   0  0  0  0  0  0  0  0  0  0  0  0
    1.8720    2.8760   -3.7210 H   0  0  0  0  0  0  0  0  0  0  0  0
   -3.4410   -5.7000    3.7960 H   0  0  0  0  0  0  0  0  0  0  0  0
   -5.7130   -3.1410    1.2010 H   0  0  0  0  0  0  0  0  0  0  0  0
   -5.3700   -7.2480    3.9460 H   0  0  0  0  0  0  0  0  0  0  0  0
   -7.6300   -4.6880    1.3610 H   0  0  0  0  0  0  0  0  0  0  0  0
    2.2110    2.9910    0.5580 H   0  0  0  0  0  0  0  0  0  0  0  0
    4.1730    4.4760    0.3570 H   0  0  0  0  0  0  0  0  0  0  0  0
    4.9930    5.1630   -1.8720 H   0  0  0  0  0  0  0  0  0  0  0  0
    1.2550   -1.8200    3.0590 H   0  0  0  0  0  0  0  0  0  0  0  0
    0.3260   -0.5360    3.8680 H   0  0  0  0  0  0  0  0  0  0  0  0
   -2.8400   -0.9830   -2.9710 H   0  0  0  0  0  0  0  0  0  0  0  0
   -3.7680    0.3020   -2.1620 H   0  0  0  0  0  0  0  0  0  0  0  0
    3.3600    4.0290   -5.0560 H   0  0  0  0  0  0  0  0  0  0  0  0
    5.0150    4.1470   -4.4120 H   0  0  0  0  0  0  0  0  0  0  0  0
    3.9380    5.5640   -4.3650 H   0  0  0  0  0  0  0  0  0  0  0  0
   -7.5240   -7.8400    3.4030 H   0  0  0  0  0  0  0  0  0  0  0  0
   -8.0390   -7.3690    1.7660 H   0  0  0  0  0  0  0  0  0  0  0  0
   -8.6400   -6.4710    3.1800 H   0  0  0  0  0  0  0  0  0  0  0  0
   -4.8610   -2.3240   -3.1510 H   0  0  0  0  0  0  0  0  0  0  0  0
   -5.0470   -0.7410   -3.9420 H   0  0  0  0  0  0  0  0  0  0  0  0
   -5.7870   -1.0320   -2.3490 H   0  0  0  0  0  0  0  0  0  0  0  0
    3.2740   -0.4700    3.2410 H   0  0  0  0  0  0  0  0  0  0  0  0
    2.5440   -0.7810    4.8340 H   0  0  0  0  0  0  0  0  0  0  0  0
    2.3430    0.8080    4.0570 H   0  0  0  0  0  0  0  0  0  0  0  0
  1  5  1  0  0  0  0
  1 11  1  0  0  0  0
  1 13  2  0  0  0  0
  2  6  1  0  0  0  0
  2 12  1  0  0  0  0
  2 14  2  0  0  0  0
  3  5  1  0  0  0  0
  3  8  2  0  0  0  0
  3 10  1  0  0  0  0
  4  6  1  0  0  0  0
  4  7  1  0  0  0  0
  4  9  2  0  0  0  0
  5 33  1  0  0  0  0
  6 34  1  0  0  0  0
  7 10  2  0  0  0  0
  7 35  1  0  0  0  0
  8  9  1  0  0  0  0
  8 36  1  0  0  0  0
  9 19  1  0  0  0  0
 10 18  1  0  0  0  0
 11 15  2  0  0  0  0
 11 24  1  0  0  0  0
 12 16  2  0  0  0  0
 12 17  1  0  0  0  0
 15 20  1  0  0  0  0
 15 37  1  0  0  0  0
 16 21  1  0  0  0  0
 16 38  1  0  0  0  0
 17 22  2  0  0  0  0
 17 39  1  0  0  0  0
 18 27  1  0  0  0  0
 19 28  1  0  0  0  0
 20 26  2  0  0  0  0
 20 29  1  0  0  0  0
 21 23  2  0  0  0  0
 21 40  1  0  0  0  0
 22 23  1  0  0  0  0
 22 41  1  0  0  0  0
 23 30  1  0  0  0  0
 24 25  2  0  0  0  0
 24 42  1  0  0  0  0
 25 26  1  0  0  0  0
 25 43  1  0  0  0  0
 26 44  1  0  0  0  0
 27 32  1  0  0  0  0
 27 45  1  0  0  0  0
 27 46  1  0  0  0  0
 28 31  1  0  0  0  0
 28 47  1  0  0  0  0
 28 48  1  0  0  0  0
 29 49  1  0  0  0  0
 29 50  1  0  0  0  0
 29 51  1  0  0  0  0
 30 52  1  0  0  0  0
 30 53  1  0  0  0  0
 30 54  1  0  0  0  0
 31 55  1  0  0  0  0
 31 56  1  0  0  0  0
 31 57  1  0  0  0  0
 32 58  1  0  0  0  0
 32 59  1  0  0  0  0
 32 60  1  0  0  0  0
M  END
>  <$CLUSTER>
131

>  <INDEX>
130330

$$$$
Chembridge 7800587
  MOE2020           3D

 43 45  0  0  0  0  0  0  0  0999 V2000
    3.7960   -0.8940   -3.5580 S   0  0  0  0  0  0  0  0  0  0  0  0
    2.9510    0.5450   -3.3300 N   0  0  0  0  0  0  0  0  0  0  0  0
    5.4950   -0.4620   -3.2000 C   0  0  0  0  0  0  0  0  0  0  0  0
    2.8770    1.1370   -1.9740 C   0  0  0  0  0  0  0  0  0  0  0  0
    2.1540    0.2400   -0.9980 C   0  0  0  0  0  0  0  0  0  0  0  0
    0.8480    0.6250   -0.8090 N   0  0  0  0  0  0  0  0  0  0  0  0
    3.3280   -1.8130   -2.5100 O   0  0  0  0  0  0  0  0  0  0  0  0
    3.6790   -1.2780   -4.9410 O   0  0  0  0  0  0  0  0  0  0  0  0
    6.2900   -0.0170   -4.2490 C   0  0  0  0  0  0  0  0  0  0  0  0
   -0.1250    0.0320    0.0210 C   0  0  0  0  0  0  0  0  0  0  0  0
    7.6230    0.3060   -3.9870 C   0  0  0  0  0  0  0  0  0  0  0  0
    5.9760   -0.5900   -1.9110 C   0  0  0  0  0  0  0  0  0  0  0  0
    2.7280   -0.7100   -0.4690 O   0  0  0  0  0  0  0  0  0  0  0  0
   -1.4000    0.6140    0.0450 C   0  0  0  0  0  0  0  0  0  0  0  0
    8.1300    0.1810   -2.6920 C   0  0  0  0  0  0  0  0  0  0  0  0
    7.3090   -0.2660   -1.6560 C   0  0  0  0  0  0  0  0  0  0  0  0
   -1.6570    1.6970   -0.7070 F   0  0  0  0  0  0  0  0  0  0  0  0
    3.2250    1.6270   -4.3140 C   0  0  0  0  0  0  0  0  0  0  0  0
    0.1040   -1.0920    0.8180 C   0  0  0  0  0  0  0  0  0  0  0  0
    8.4690    0.7610   -5.0270 C   0  0  0  0  0  0  0  0  0  0  0  0
   -2.4250    0.0980    0.8340 C   0  0  0  0  0  0  0  0  0  0  0  0
    9.4900    0.5140   -2.4390 C   0  0  0  0  0  0  0  0  0  0  0  0
   -0.9210   -1.6170    1.6140 C   0  0  0  0  0  0  0  0  0  0  0  0
    9.8000    1.0840   -4.7670 C   0  0  0  0  0  0  0  0  0  0  0  0
   -2.1840   -1.0240    1.6240 C   0  0  0  0  0  0  0  0  0  0  0  0
   10.3100    0.9610   -3.4760 C   0  0  0  0  0  0  0  0  0  0  0  0
    2.3480    2.0880   -2.0350 H   0  0  0  0  0  0  0  0  0  0  0  0
    3.8900    1.3070   -1.6100 H   0  0  0  0  0  0  0  0  0  0  0  0
    0.5470    1.4360   -1.3310 H   0  0  0  0  0  0  0  0  0  0  0  0
    5.8860    0.0770   -5.2460 H   0  0  0  0  0  0  0  0  0  0  0  0
    5.3320   -0.9350   -1.1150 H   0  0  0  0  0  0  0  0  0  0  0  0
    7.7060   -0.3610   -0.6560 H   0  0  0  0  0  0  0  0  0  0  0  0
    3.2810    1.2010   -5.3160 H   0  0  0  0  0  0  0  0  0  0  0  0
    4.1720    2.1090   -4.0700 H   0  0  0  0  0  0  0  0  0  0  0  0
    2.4220    2.3640   -4.2770 H   0  0  0  0  0  0  0  0  0  0  0  0
    1.0780   -1.5590    0.8200 H   0  0  0  0  0  0  0  0  0  0  0  0
    8.0800    0.8590   -6.0300 H   0  0  0  0  0  0  0  0  0  0  0  0
   -3.3990    0.5640    0.8330 H   0  0  0  0  0  0  0  0  0  0  0  0
    9.8890    0.4200   -1.4400 H   0  0  0  0  0  0  0  0  0  0  0  0
   -0.7330   -2.4870    2.2250 H   0  0  0  0  0  0  0  0  0  0  0  0
   10.4370    1.4300   -5.5680 H   0  0  0  0  0  0  0  0  0  0  0  0
   -2.9710   -1.4330    2.2410 H   0  0  0  0  0  0  0  0  0  0  0  0
   11.3420    1.2120   -3.2780 H   0  0  0  0  0  0  0  0  0  0  0  0
  1  2  1  0  0  0  0
  1  3  1  0  0  0  0
  1  7  2  0  0  0  0
  1  8  2  0  0  0  0
  2  4  1  0  0  0  0
  2 18  1  0  0  0  0
  3  9  2  0  0  0  0
  3 12  1  0  0  0  0
  4  5  1  0  0  0  0
  4 27  1  0  0  0  0
  4 28  1  0  0  0  0
  5  6  1  0  0  0  0
  5 13  2  0  0  0  0
  6 10  1  0  0  0  0
  6 29  1  0  0  0  0
  9 11  1  0  0  0  0
  9 30  1  0  0  0  0
 10 14  2  0  0  0  0
 10 19  1  0  0  0  0
 11 15  2  0  0  0  0
 11 20  1  0  0  0  0
 12 16  2  0  0  0  0
 12 31  1  0  0  0  0
 14 17  1  0  0  0  0
 14 21  1  0  0  0  0
 15 16  1  0  0  0  0
 15 22  1  0  0  0  0
 16 32  1  0  0  0  0
 18 33  1  0  0  0  0
 18 34  1  0  0  0  0
 18 35  1  0  0  0  0
 19 23  2  0  0  0  0
 19 36  1  0  0  0  0
 20 24  2  0  0  0  0
 20 37  1  0  0  0  0
 21 25  2  0  0  0  0
 21 38  1  0  0  0  0
 22 26  2  0  0  0  0
 22 39  1  0  0  0  0
 23 25  1  0  0  0  0
 23 40  1  0  0  0  0
 24 26  1  0  0  0  0
 24 41  1  0  0  0  0
 25 42  1  0  0  0  0
 26 43  1  0  0  0  0
M  END
>  <$CLUSTER>
132

>  <INDEX>
86440

$$$$
Specs AP-828/41113643
  MOE2020           3D

 57 59  0  0  0  0  0  0  0  0999 V2000
   -1.7270   -0.1590    0.3230 S   0  0  0  0  0  0  0  0  0  0  0  0
   -2.1450    1.4000    0.7670 N   0  0  0  0  0  0  0  0  0  0  0  0
   -1.6360    1.9140    2.0670 C   0  0  0  0  0  0  0  0  0  0  0  0
   -2.0770    1.1380    3.2750 C   0  0  0  0  0  0  0  0  0  0  0  0
    0.0040   -0.0300   -0.0060 C   0  0  0  0  0  0  0  0  0  0  0  0
   -2.4130   -0.4580   -0.9230 O   0  0  0  0  0  0  0  0  0  0  0  0
   -1.9210   -1.0130    1.4810 O   0  0  0  0  0  0  0  0  0  0  0  0
   -3.1480    1.6590    3.9270 N   0  0  0  0  0  0  0  0  0  0  0  0
   -2.1190    2.4550   -0.2810 C   0  0  0  0  0  0  0  0  0  0  0  0
   -3.8580    1.2510    5.0660 C   0  0  0  0  0  0  0  0  0  0  0  0
   -1.5750    0.0580    3.5990 O   0  0  0  0  0  0  0  0  0  0  0  0
   -3.5520    0.0720    5.7520 C   0  0  0  0  0  0  0  0  0  0  0  0
    0.4420    0.2930   -1.2940 C   0  0  0  0  0  0  0  0  0  0  0  0
    0.9250   -0.2930    1.0120 C   0  0  0  0  0  0  0  0  0  0  0  0
   -3.0460    2.2250   -1.4390 C   0  0  0  0  0  0  0  0  0  0  0  0
   -4.2930   -0.3010    6.8790 C   0  0  0  0  0  0  0  0  0  0  0  0
    2.2920   -0.2180    0.7410 C   0  0  0  0  0  0  0  0  0  0  0  0
    1.8110    0.3660   -1.5580 C   0  0  0  0  0  0  0  0  0  0  0  0
    2.7330    0.1110   -0.5420 C   0  0  0  0  0  0  0  0  0  0  0  0
   -4.7950    1.7190   -3.5650 C   0  0  0  0  0  0  0  0  0  0  0  0
   -4.3010    2.8340   -1.4750 C   0  0  0  0  0  0  0  0  0  0  0  0
   -2.6880    1.3170   -2.4470 C   0  0  0  0  0  0  0  0  0  0  0  0
   -5.1680    2.5930   -2.5440 C   0  0  0  0  0  0  0  0  0  0  0  0
   -3.5560    1.0780   -3.5150 C   0  0  0  0  0  0  0  0  0  0  0  0
   -3.8830   -1.4880    7.4600 O   0  0  0  0  0  0  0  0  0  0  0  0
   -5.6550    1.6730    6.6530 C   0  0  0  0  0  0  0  0  0  0  0  0
   -4.9170    2.0470    5.5280 C   0  0  0  0  0  0  0  0  0  0  0  0
   -5.3420    0.4970    7.3300 C   0  0  0  0  0  0  0  0  0  0  0  0
    4.1980    0.1920   -0.8310 C   0  0  0  0  0  0  0  0  0  0  0  0
   -5.7190    1.4660   -4.7110 C   0  0  0  0  0  0  0  0  0  0  0  0
   -4.6000   -1.9190    8.6110 C   0  0  0  0  0  0  0  0  0  0  0  0
   -1.9800    2.9420    2.1820 H   0  0  0  0  0  0  0  0  0  0  0  0
   -0.5470    1.8970    2.0340 H   0  0  0  0  0  0  0  0  0  0  0  0
   -3.5030    2.5070    3.5100 H   0  0  0  0  0  0  0  0  0  0  0  0
   -1.1030    2.5200   -0.6700 H   0  0  0  0  0  0  0  0  0  0  0  0
   -2.3910    3.4020    0.1860 H   0  0  0  0  0  0  0  0  0  0  0  0
   -2.7400   -0.5540    5.4110 H   0  0  0  0  0  0  0  0  0  0  0  0
   -0.2740    0.4850   -2.0790 H   0  0  0  0  0  0  0  0  0  0  0  0
    0.5810   -0.5530    2.0020 H   0  0  0  0  0  0  0  0  0  0  0  0
    3.0090   -0.4150    1.5240 H   0  0  0  0  0  0  0  0  0  0  0  0
    2.1570    0.6200   -2.5490 H   0  0  0  0  0  0  0  0  0  0  0  0
   -4.6030    3.4930   -0.6750 H   0  0  0  0  0  0  0  0  0  0  0  0
   -1.7400    0.8020   -2.3970 H   0  0  0  0  0  0  0  0  0  0  0  0
   -6.1290    3.0850   -2.5800 H   0  0  0  0  0  0  0  0  0  0  0  0
   -3.2680    0.3970   -4.3020 H   0  0  0  0  0  0  0  0  0  0  0  0
   -6.4680    2.2950    6.9980 H   0  0  0  0  0  0  0  0  0  0  0  0
   -5.1640    2.9600    5.0070 H   0  0  0  0  0  0  0  0  0  0  0  0
   -5.9100    0.2050    8.2010 H   0  0  0  0  0  0  0  0  0  0  0  0
    4.7600   -0.0370    0.0740 H   0  0  0  0  0  0  0  0  0  0  0  0
    4.4470    1.1980   -1.1690 H   0  0  0  0  0  0  0  0  0  0  0  0
    4.4550   -0.5260   -1.6090 H   0  0  0  0  0  0  0  0  0  0  0  0
   -6.6300    2.0490   -4.5780 H   0  0  0  0  0  0  0  0  0  0  0  0
   -5.9680    0.4060   -4.7490 H   0  0  0  0  0  0  0  0  0  0  0  0
   -5.2320    1.7590   -5.6410 H   0  0  0  0  0  0  0  0  0  0  0  0
   -4.1810   -2.8590    8.9690 H   0  0  0  0  0  0  0  0  0  0  0  0
   -5.6490   -2.0640    8.3530 H   0  0  0  0  0  0  0  0  0  0  0  0
   -4.5190   -1.1640    9.3930 H   0  0  0  0  0  0  0  0  0  0  0  0
  1  2  1  0  0  0  0
  1  5  1  0  0  0  0
  1  6  2  0  0  0  0
  1  7  2  0  0  0  0
  2  3  1  0  0  0  0
  2  9  1  0  0  0  0
  3  4  1  0  0  0  0
  3 32  1  0  0  0  0
  3 33  1  0  0  0  0
  4  8  1  0  0  0  0
  4 11  2  0  0  0  0
  5 13  1  0  0  0  0
  5 14  2  0  0  0  0
  8 10  1  0  0  0  0
  8 34  1  0  0  0  0
  9 15  1  0  0  0  0
  9 35  1  0  0  0  0
  9 36  1  0  0  0  0
 10 12  2  0  0  0  0
 10 27  1  0  0  0  0
 12 16  1  0  0  0  0
 12 37  1  0  0  0  0
 13 18  2  0  0  0  0
 13 38  1  0  0  0  0
 14 17  1  0  0  0  0
 14 39  1  0  0  0  0
 15 21  2  0  0  0  0
 15 22  1  0  0  0  0
 16 25  1  0  0  0  0
 16 28  2  0  0  0  0
 17 19  2  0  0  0  0
 17 40  1  0  0  0  0
 18 19  1  0  0  0  0
 18 41  1  0  0  0  0
 19 29  1  0  0  0  0
 20 23  2  0  0  0  0
 20 24  1  0  0  0  0
 20 30  1  0  0  0  0
 21 23  1  0  0  0  0
 21 42  1  0  0  0  0
 22 24  2  0  0  0  0
 22 43  1  0  0  0  0
 23 44  1  0  0  0  0
 24 45  1  0  0  0  0
 25 31  1  0  0  0  0
 26 27  2  0  0  0  0
 26 28  1  0  0  0  0
 26 46  1  0  0  0  0
 27 47  1  0  0  0  0
 28 48  1  0  0  0  0
 29 49  1  0  0  0  0
 29 50  1  0  0  0  0
 29 51  1  0  0  0  0
 30 52  1  0  0  0  0
 30 53  1  0  0  0  0
 30 54  1  0  0  0  0
 31 55  1  0  0  0  0
 31 56  1  0  0  0  0
 31 57  1  0  0  0  0
M  END
>  <$CLUSTER>
133

>  <INDEX>
533610

$$$$
Life Chemicals F0917-0780
  MOE2020           3D

 47 49  0  0  0  0  0  0  0  0999 V2000
   -5.0420   -4.5430    0.3680 S   0  0  0  0  0  0  0  0  0  0  0  0
   -4.8950   -2.7970    0.4070 C   0  0  0  0  0  0  0  0  0  0  0  0
   -3.4690   -5.0950    0.4170 N   0  0  0  0  0  0  0  0  0  0  0  0
   -3.6600   -2.1480    0.4740 C   0  0  0  0  0  0  0  0  0  0  0  0
   -2.3060    0.0160    0.5850 C   0  0  0  0  0  0  0  0  0  0  0  0
   -3.5850   -0.7760    0.4840 C   0  0  0  0  0  0  0  0  0  0  0  0
   -1.2320   -0.6960    0.0670 N   0  0  0  0  0  0  0  0  0  0  0  0
   -5.6750   -4.9680    1.6030 O   0  0  0  0  0  0  0  0  0  0  0  0
   -5.5790   -4.9210   -0.9280 O   0  0  0  0  0  0  0  0  0  0  0  0
   -6.0760   -2.0560    0.3680 C   0  0  0  0  0  0  0  0  0  0  0  0
    0.1180   -0.2820   -0.0120 C   0  0  0  0  0  0  0  0  0  0  0  0
   -2.3000    1.1410    1.0760 O   0  0  0  0  0  0  0  0  0  0  0  0
   -2.6020   -4.8360   -0.7740 C   0  0  0  0  0  0  0  0  0  0  0  0
   -2.6950   -4.8830    1.6800 C   0  0  0  0  0  0  0  0  0  0  0  0
    0.5920    0.9540    0.4380 C   0  0  0  0  0  0  0  0  0  0  0  0
   -4.7930   -0.0110    0.4700 C   0  0  0  0  0  0  0  0  0  0  0  0
   -6.0250   -0.6640    0.4020 C   0  0  0  0  0  0  0  0  0  0  0  0
    1.9480    1.2770    0.3180 C   0  0  0  0  0  0  0  0  0  0  0  0
   -7.2690   -2.6490    0.3150 F   0  0  0  0  0  0  0  0  0  0  0  0
   -1.3320   -5.6830   -0.7630 C   0  0  0  0  0  0  0  0  0  0  0  0
   -1.4280   -5.7290    1.7330 C   0  0  0  0  0  0  0  0  0  0  0  0
    2.5220    2.7860    0.8670 Cl  0  0  0  0  0  0  0  0  0  0  0  0
   -0.5260   -5.4830    0.5220 C   0  0  0  0  0  0  0  0  0  0  0  0
    2.3800   -0.8620   -0.7010 C   0  0  0  0  0  0  0  0  0  0  0  0
    1.0270   -1.1870   -0.5830 C   0  0  0  0  0  0  0  0  0  0  0  0
    2.8410    0.3710   -0.2500 C   0  0  0  0  0  0  0  0  0  0  0  0
    0.6980   -6.3950    0.5520 C   0  0  0  0  0  0  0  0  0  0  0  0
   -2.7530   -2.7320    0.5190 H   0  0  0  0  0  0  0  0  0  0  0  0
   -1.4390   -1.6160   -0.2950 H   0  0  0  0  0  0  0  0  0  0  0  0
   -2.3210   -3.7830   -0.7800 H   0  0  0  0  0  0  0  0  0  0  0  0
   -3.1690   -5.0660   -1.6760 H   0  0  0  0  0  0  0  0  0  0  0  0
   -3.3280   -5.1470    2.5270 H   0  0  0  0  0  0  0  0  0  0  0  0
   -2.4170   -3.8310    1.7480 H   0  0  0  0  0  0  0  0  0  0  0  0
   -0.0920    1.6630    0.8800 H   0  0  0  0  0  0  0  0  0  0  0  0
   -4.7520    1.0670    0.5120 H   0  0  0  0  0  0  0  0  0  0  0  0
   -6.9390   -0.0900    0.3760 H   0  0  0  0  0  0  0  0  0  0  0  0
   -0.7130   -5.4020   -1.6150 H   0  0  0  0  0  0  0  0  0  0  0  0
   -1.6080   -6.7340   -0.8460 H   0  0  0  0  0  0  0  0  0  0  0  0
   -1.7080   -6.7820    1.7550 H   0  0  0  0  0  0  0  0  0  0  0  0
   -0.8760   -5.4810    2.6400 H   0  0  0  0  0  0  0  0  0  0  0  0
   -0.1620   -4.4560    0.5550 H   0  0  0  0  0  0  0  0  0  0  0  0
    3.0680   -1.5680   -1.1420 H   0  0  0  0  0  0  0  0  0  0  0  0
    0.6760   -2.1460   -0.9350 H   0  0  0  0  0  0  0  0  0  0  0  0
    3.8870    0.6250   -0.3400 H   0  0  0  0  0  0  0  0  0  0  0  0
    0.3760   -7.4360    0.5200 H   0  0  0  0  0  0  0  0  0  0  0  0
    1.2620   -6.2170    1.4680 H   0  0  0  0  0  0  0  0  0  0  0  0
    1.3300   -6.1830   -0.3110 H   0  0  0  0  0  0  0  0  0  0  0  0
  1  2  1  0  0  0  0
  1  3  1  0  0  0  0
  1  8  2  0  0  0  0
  1  9  2  0  0  0  0
  2  4  2  0  0  0  0
  2 10  1  0  0  0  0
  3 13  1  0  0  0  0
  3 14  1  0  0  0  0
  4  6  1  0  0  0  0
  4 28  1  0  0  0  0
  5  6  1  0  0  0  0
  5  7  1  0  0  0  0
  5 12  2  0  0  0  0
  6 16  2  0  0  0  0
  7 11  1  0  0  0  0
  7 29  1  0  0  0  0
 10 17  2  0  0  0  0
 10 19  1  0  0  0  0
 11 15  2  0  0  0  0
 11 25  1  0  0  0  0
 13 20  1  0  0  0  0
 13 30  1  0  0  0  0
 13 31  1  0  0  0  0
 14 21  1  0  0  0  0
 14 32  1  0  0  0  0
 14 33  1  0  0  0  0
 15 18  1  0  0  0  0
 15 34  1  0  0  0  0
 16 17  1  0  0  0  0
 16 35  1  0  0  0  0
 17 36  1  0  0  0  0
 18 22  1  0  0  0  0
 18 26  2  0  0  0  0
 20 23  1  0  0  0  0
 20 37  1  0  0  0  0
 20 38  1  0  0  0  0
 21 23  1  0  0  0  0
 21 39  1  0  0  0  0
 21 40  1  0  0  0  0
 23 27  1  0  0  0  0
 23 41  1  0  0  0  0
 24 25  2  0  0  0  0
 24 26  1  0  0  0  0
 24 42  1  0  0  0  0
 25 43  1  0  0  0  0
 26 44  1  0  0  0  0
 27 45  1  0  0  0  0
 27 46  1  0  0  0  0
 27 47  1  0  0  0  0
M  END
>  <$CLUSTER>
134

>  <INDEX>
290539

$$$$
Specs AN-979/41971488
  MOE2020           3D

 34 35  0  0  0  0  0  0  0  0999 V2000
    0.2190    0.6260    0.8700 C   0  0  0  0  0  0  0  0  0  0  0  0
   -0.4410   -0.3050    0.0300 C   0  0  0  0  0  0  0  0  0  0  0  0
   -0.6910   -1.1050   -2.3540 C   0  0  0  0  0  0  0  0  0  0  0  0
   -0.1500   -0.3000   -1.3590 N   0  0  0  0  0  0  0  0  0  0  0  0
    1.2410    1.6110    0.3590 C   0  0  0  0  0  0  0  0  0  0  0  0
   -0.0970   -0.7740   -3.7010 C   0  0  0  0  0  0  0  0  0  0  0  0
   -1.3710   -1.1880    0.6000 C   0  0  0  0  0  0  0  0  0  0  0  0
   -0.0830    0.6480    2.2450 C   0  0  0  0  0  0  0  0  0  0  0  0
   -0.8990   -1.1120   -4.8360 C   0  0  0  0  0  0  0  0  0  0  0  0
   -0.4160   -0.8630   -6.1230 C   0  0  0  0  0  0  0  0  0  0  0  0
   -1.5380   -1.9850   -2.2420 O   0  0  0  0  0  0  0  0  0  0  0  0
    0.8490   -0.3060   -6.2990 C   0  0  0  0  0  0  0  0  0  0  0  0
    1.1870    2.7880    0.8320 O   0  0  0  0  0  0  0  0  0  0  0  0
    1.1570   -0.2470   -3.9000 C   0  0  0  0  0  0  0  0  0  0  0  0
    1.6350   -0.0010   -5.1890 C   0  0  0  0  0  0  0  0  0  0  0  0
   -1.6520   -1.1520    1.9680 C   0  0  0  0  0  0  0  0  0  0  0  0
   -1.0110   -0.2350    2.7900 C   0  0  0  0  0  0  0  0  0  0  0  0
    2.0790    1.1870   -0.4960 O   0  5  0  0  0  0  0  0  0  0  0  0
   -2.7890   -2.2460    2.6120 Cl  0  0  0  0  0  0  0  0  0  0  0  0
   -1.2560   -1.1960   -7.3130 C   0  0  0  0  0  0  0  0  0  0  0  0
    1.3600   -0.0360   -7.6760 C   0  0  0  0  0  0  0  0  0  0  0  0
    0.5380    0.3740   -1.6630 H   0  0  0  0  0  0  0  0  0  0  0  0
   -1.8770   -1.9060   -0.0280 H   0  0  0  0  0  0  0  0  0  0  0  0
    0.4130    1.3610    2.8870 H   0  0  0  0  0  0  0  0  0  0  0  0
   -1.8730   -1.5580   -4.6990 H   0  0  0  0  0  0  0  0  0  0  0  0
    1.7810   -0.0200   -3.0480 H   0  0  0  0  0  0  0  0  0  0  0  0
    2.6170    0.4270   -5.3260 H   0  0  0  0  0  0  0  0  0  0  0  0
   -1.2310   -0.2070    3.8470 H   0  0  0  0  0  0  0  0  0  0  0  0
   -2.2040   -1.6190   -6.9810 H   0  0  0  0  0  0  0  0  0  0  0  0
   -0.7320   -1.9210   -7.9360 H   0  0  0  0  0  0  0  0  0  0  0  0
   -1.4440   -0.2900   -7.8900 H   0  0  0  0  0  0  0  0  0  0  0  0
    0.6100   -0.3380   -8.4070 H   0  0  0  0  0  0  0  0  0  0  0  0
    2.2770   -0.6020   -7.8410 H   0  0  0  0  0  0  0  0  0  0  0  0
    1.5660    1.0290   -7.7850 H   0  0  0  0  0  0  0  0  0  0  0  0
  1  2  2  0  0  0  0
  1  5  1  0  0  0  0
  1  8  1  0  0  0  0
  2  4  1  0  0  0  0
  2  7  1  0  0  0  0
  3  4  1  0  0  0  0
  3  6  1  0  0  0  0
  3 11  2  0  0  0  0
  4 22  1  0  0  0  0
  5 13  2  0  0  0  0
  5 18  1  0  0  0  0
  6  9  1  0  0  0  0
  6 14  2  0  0  0  0
  7 16  2  0  0  0  0
  7 23  1  0  0  0  0
  8 17  2  0  0  0  0
  8 24  1  0  0  0  0
  9 10  2  0  0  0  0
  9 25  1  0  0  0  0
 10 12  1  0  0  0  0
 10 20  1  0  0  0  0
 12 15  2  0  0  0  0
 12 21  1  0  0  0  0
 14 15  1  0  0  0  0
 14 26  1  0  0  0  0
 15 27  1  0  0  0  0
 16 17  1  0  0  0  0
 16 19  1  0  0  0  0
 17 28  1  0  0  0  0
 20 29  1  0  0  0  0
 20 30  1  0  0  0  0
 20 31  1  0  0  0  0
 21 32  1  0  0  0  0
 21 33  1  0  0  0  0
 21 34  1  0  0  0  0
M  CHG  1  18  -1
M  END
>  <$CLUSTER>
135

>  <INDEX>
529393

$$$$
Chembridge 7926257
  MOE2020           3D

 50 52  0  0  0  0  0  0  0  0999 V2000
   -0.3050   -0.3820    0.1900 N   0  0  0  0  0  0  0  0  0  0  0  0
   -0.3580    0.9410   -0.1640 C   0  0  0  0  0  0  0  0  0  0  0  0
    0.5550   -0.9680   -0.7150 C   0  0  0  0  0  0  0  0  0  0  0  0
    0.4140    1.1530   -1.2060 N   0  0  0  0  0  0  0  0  0  0  0  0
    0.9880   -0.0460   -1.5520 N   0  0  0  0  0  0  0  0  0  0  0  0
    4.3270   -2.8740    0.8780 C   0  0  0  0  0  0  0  0  0  0  0  0
    3.3670   -2.5390   -0.2320 C   0  0  0  0  0  0  0  0  0  0  0  0
   -1.3210    2.1200    0.6600 S   0  0  0  0  0  0  0  0  0  0  0  0
    2.0440   -2.6790    0.1530 N   0  0  0  0  0  0  0  0  0  0  0  0
   -1.5610    3.5810   -1.6880 C   0  0  0  0  0  0  0  0  0  0  0  0
    0.9260   -2.4080   -0.7430 C   0  0  0  0  0  0  0  0  0  0  0  0
   -0.7190    3.1440   -2.6540 N   0  0  0  0  0  0  0  0  0  0  0  0
    5.5470   -3.4620    0.5170 C   0  0  0  0  0  0  0  0  0  0  0  0
   -0.8820    2.9650   -4.0370 C   0  0  0  0  0  0  0  0  0  0  0  0
    3.7540   -2.1650   -1.3350 O   0  0  0  0  0  0  0  0  0  0  0  0
   -2.0990    3.2070   -4.6800 C   0  0  0  0  0  0  0  0  0  0  0  0
   -2.7380    3.8500   -1.9020 O   0  0  0  0  0  0  0  0  0  0  0  0
   -0.9930   -1.0470    1.2810 C   0  0  0  0  0  0  0  0  0  0  0  0
   -0.9500    3.6110   -0.2900 C   0  0  0  0  0  0  0  0  0  0  0  0
   -2.3710   -1.5470    0.8800 C   0  0  0  0  0  0  0  0  0  0  0  0
   -2.7780   -2.7990    0.9780 C   0  0  0  0  0  0  0  0  0  0  0  0
   -2.2190    3.0080   -6.0600 C   0  0  0  0  0  0  0  0  0  0  0  0
    5.8340   -3.7790   -0.7550 F   0  0  0  0  0  0  0  0  0  0  0  0
   -3.3510    3.2180   -6.7380 F   0  0  0  0  0  0  0  0  0  0  0  0
    4.0710   -2.5660    2.1980 C   0  0  0  0  0  0  0  0  0  0  0  0
    0.0880    2.3260   -6.1750 C   0  0  0  0  0  0  0  0  0  0  0  0
    0.2100    2.5230   -4.7990 C   0  0  0  0  0  0  0  0  0  0  0  0
    6.4910   -3.7670    1.4960 C   0  0  0  0  0  0  0  0  0  0  0  0
   -1.1280    2.5690   -6.8070 C   0  0  0  0  0  0  0  0  0  0  0  0
    5.0150   -2.8700    3.1820 C   0  0  0  0  0  0  0  0  0  0  0  0
    6.2240   -3.4700    2.8320 C   0  0  0  0  0  0  0  0  0  0  0  0
    1.8450   -2.9820    1.0960 H   0  0  0  0  0  0  0  0  0  0  0  0
    1.2090   -2.6830   -1.7590 H   0  0  0  0  0  0  0  0  0  0  0  0
    0.0680   -3.0030   -0.4310 H   0  0  0  0  0  0  0  0  0  0  0  0
    0.2010    2.9010   -2.3160 H   0  0  0  0  0  0  0  0  0  0  0  0
   -2.9500    3.5490   -4.1100 H   0  0  0  0  0  0  0  0  0  0  0  0
   -1.1030   -0.3430    2.1060 H   0  0  0  0  0  0  0  0  0  0  0  0
   -0.3930   -1.8970    1.6060 H   0  0  0  0  0  0  0  0  0  0  0  0
    0.1320    3.7060   -0.3830 H   0  0  0  0  0  0  0  0  0  0  0  0
   -1.3450    4.4740    0.2460 H   0  0  0  0  0  0  0  0  0  0  0  0
   -3.0700   -0.8240    0.4850 H   0  0  0  0  0  0  0  0  0  0  0  0
   -3.7770   -3.0680    0.6690 H   0  0  0  0  0  0  0  0  0  0  0  0
   -2.1120   -3.5550    1.3670 H   0  0  0  0  0  0  0  0  0  0  0  0
    3.1410   -2.0900    2.4710 H   0  0  0  0  0  0  0  0  0  0  0  0
    0.9370    1.9850   -6.7490 H   0  0  0  0  0  0  0  0  0  0  0  0
    1.1560    2.3330   -4.3150 H   0  0  0  0  0  0  0  0  0  0  0  0
    7.4260   -4.2320    1.2210 H   0  0  0  0  0  0  0  0  0  0  0  0
   -1.2250    2.4180   -7.8720 H   0  0  0  0  0  0  0  0  0  0  0  0
    4.8080   -2.6400    4.2170 H   0  0  0  0  0  0  0  0  0  0  0  0
    6.9520   -3.7040    3.5940 H   0  0  0  0  0  0  0  0  0  0  0  0
  1  2  1  0  0  0  0
  1  3  1  0  0  0  0
  1 18  1  0  0  0  0
  2  4  2  0  0  0  0
  2  8  1  0  0  0  0
  3  5  2  0  0  0  0
  3 11  1  0  0  0  0
  4  5  1  0  0  0  0
  6  7  1  0  0  0  0
  6 13  2  0  0  0  0
  6 25  1  0  0  0  0
  7  9  1  0  0  0  0
  7 15  2  0  0  0  0
  8 19  1  0  0  0  0
  9 11  1  0  0  0  0
  9 32  1  0  0  0  0
 10 12  1  0  0  0  0
 10 17  2  0  0  0  0
 10 19  1  0  0  0  0
 11 33  1  0  0  0  0
 11 34  1  0  0  0  0
 12 14  1  0  0  0  0
 12 35  1  0  0  0  0
 13 23  1  0  0  0  0
 13 28  1  0  0  0  0
 14 16  2  0  0  0  0
 14 27  1  0  0  0  0
 16 22  1  0  0  0  0
 16 36  1  0  0  0  0
 18 20  1  0  0  0  0
 18 37  1  0  0  0  0
 18 38  1  0  0  0  0
 19 39  1  0  0  0  0
 19 40  1  0  0  0  0
 20 21  2  0  0  0  0
 20 41  1  0  0  0  0
 21 42  1  0  0  0  0
 21 43  1  0  0  0  0
 22 24  1  0  0  0  0
 22 29  2  0  0  0  0
 25 30  2  0  0  0  0
 25 44  1  0  0  0  0
 26 27  2  0  0  0  0
 26 29  1  0  0  0  0
 26 45  1  0  0  0  0
 27 46  1  0  0  0  0
 28 31  2  0  0  0  0
 28 47  1  0  0  0  0
 29 48  1  0  0  0  0
 30 31  1  0  0  0  0
 30 49  1  0  0  0  0
 31 50  1  0  0  0  0
M  END
>  <$CLUSTER>
136

>  <INDEX>
91468

$$$$
MDPI 16272
  MOE2020           3D

 32 35  0  0  0  0  0  0  0  0999 V2000
   -0.6510    0.1490   -0.3360 N   0  0  0  0  0  0  0  0  0  0  0  0
    0.0290   -1.0470   -0.6050 C   0  0  0  0  0  0  0  0  0  0  0  0
   -0.1560    1.1140    0.5610 C   0  0  0  0  0  0  0  0  0  0  0  0
    1.1830   -1.3080    0.0350 C   0  0  0  0  0  0  0  0  0  0  0  0
    1.1240    0.7900    1.2350 C   0  0  0  0  0  0  0  0  0  0  0  0
   -0.5770   -2.0160   -1.5580 C   0  0  0  0  0  0  0  0  0  0  0  0
    1.7380   -0.3630    0.9680 C   0  0  0  0  0  0  0  0  0  0  0  0
   -1.9130    0.4180   -1.0320 C   0  0  0  0  0  0  0  0  0  0  0  0
   -0.6990    2.1860    0.8150 O   0  0  0  0  0  0  0  0  0  0  0  0
   -1.9550   -1.9160   -1.8410 C   0  0  0  0  0  0  0  0  0  0  0  0
   -2.7670   -0.8350   -1.1810 C   0  0  0  0  0  0  0  0  0  0  0  0
    1.6750    1.7170    2.1550 C   0  0  0  0  0  0  0  0  0  0  0  0
    0.1620   -3.0170   -2.2090 C   0  0  0  0  0  0  0  0  0  0  0  0
    2.9750   -0.7010    1.6070 C   0  0  0  0  0  0  0  0  0  0  0  0
   -2.5740   -2.8320   -2.7040 C   0  0  0  0  0  0  0  0  0  0  0  0
   -0.4580   -3.9160   -3.0820 C   0  0  0  0  0  0  0  0  0  0  0  0
    2.8780    1.4090    2.7880 C   0  0  0  0  0  0  0  0  0  0  0  0
    3.5270    0.2050    2.5150 C   0  0  0  0  0  0  0  0  0  0  0  0
   -1.8250   -3.8280   -3.3230 C   0  0  0  0  0  0  0  0  0  0  0  0
    1.6990   -2.2380   -0.1530 H   0  0  0  0  0  0  0  0  0  0  0  0
   -1.6900    0.8110   -2.0240 H   0  0  0  0  0  0  0  0  0  0  0  0
   -2.4750    1.1600   -0.4650 H   0  0  0  0  0  0  0  0  0  0  0  0
   -3.6400   -0.6100   -1.7940 H   0  0  0  0  0  0  0  0  0  0  0  0
   -3.0920   -1.1730   -0.1970 H   0  0  0  0  0  0  0  0  0  0  0  0
    1.1700    2.6490    2.3630 H   0  0  0  0  0  0  0  0  0  0  0  0
    1.2250   -3.0940   -2.0330 H   0  0  0  0  0  0  0  0  0  0  0  0
    3.4700   -1.6360    1.3910 H   0  0  0  0  0  0  0  0  0  0  0  0
   -3.6360   -2.7640   -2.8890 H   0  0  0  0  0  0  0  0  0  0  0  0
    0.1270   -4.6810   -3.5710 H   0  0  0  0  0  0  0  0  0  0  0  0
    3.3090    2.1050    3.4920 H   0  0  0  0  0  0  0  0  0  0  0  0
    4.4600   -0.0270    3.0080 H   0  0  0  0  0  0  0  0  0  0  0  0
   -2.3040   -4.5310   -3.9890 H   0  0  0  0  0  0  0  0  0  0  0  0
  1  2  1  0  0  0  0
  1  3  1  0  0  0  0
  1  8  1  0  0  0  0
  2  4  2  0  0  0  0
  2  6  1  0  0  0  0
  3  5  1  0  0  0  0
  3  9  2  0  0  0  0
  4  7  1  0  0  0  0
  4 20  1  0  0  0  0
  5  7  2  0  0  0  0
  5 12  1  0  0  0  0
  6 10  2  0  0  0  0
  6 13  1  0  0  0  0
  7 14  1  0  0  0  0
  8 11  1  0  0  0  0
  8 21  1  0  0  0  0
  8 22  1  0  0  0  0
 10 11  1  0  0  0  0
 10 15  1  0  0  0  0
 11 23  1  0  0  0  0
 11 24  1  0  0  0  0
 12 17  2  0  0  0  0
 12 25  1  0  0  0  0
 13 16  2  0  0  0  0
 13 26  1  0  0  0  0
 14 18  2  0  0  0  0
 14 27  1  0  0  0  0
 15 19  2  0  0  0  0
 15 28  1  0  0  0  0
 16 19  1  0  0  0  0
 16 29  1  0  0  0  0
 17 18  1  0  0  0  0
 17 30  1  0  0  0  0
 18 31  1  0  0  0  0
 19 32  1  0  0  0  0
M  END
>  <$CLUSTER>
137

>  <INDEX>
475434

$$$$
Chembridge 7792467
  MOE2020           3D

 41 42  0  0  0  0  0  0  0  0999 V2000
    0.5050    2.0520   -0.7350 S   0  0  0  0  0  0  0  0  0  0  0  0
    0.3180   -2.4830    1.0480 C   0  0  0  0  0  0  0  0  0  0  0  0
    1.6930    2.0340    0.5890 C   0  0  0  0  0  0  0  0  0  0  0  0
    0.6050    0.4240   -1.2640 N   0  0  0  0  0  0  0  0  0  0  0  0
    1.2310   -3.3910    1.7390 C   0  0  0  0  0  0  0  0  0  0  0  0
    1.2650    1.7540    1.9030 C   0  0  0  0  0  0  0  0  0  0  0  0
    1.0520    2.8960   -1.7810 O   0  0  0  0  0  0  0  0  0  0  0  0
   -0.7960    2.3370   -0.1630 O   0  0  0  0  0  0  0  0  0  0  0  0
    2.1810    1.7790    2.9560 C   0  0  0  0  0  0  0  0  0  0  0  0
   -1.0630   -2.5590    1.2270 C   0  0  0  0  0  0  0  0  0  0  0  0
    0.8630   -1.5010    0.2200 C   0  0  0  0  0  0  0  0  0  0  0  0
    0.0220   -0.5940   -0.4320 C   0  0  0  0  0  0  0  0  0  0  0  0
    3.5180    2.0990    2.7120 C   0  0  0  0  0  0  0  0  0  0  0  0
    1.1760   -3.7140    2.9160 O   0  0  0  0  0  0  0  0  0  0  0  0
    3.0340    2.3720    0.3590 C   0  0  0  0  0  0  0  0  0  0  0  0
    3.9440    2.3950    1.4160 C   0  0  0  0  0  0  0  0  0  0  0  0
   -1.9010   -1.6540    0.5760 C   0  0  0  0  0  0  0  0  0  0  0  0
    2.1720   -3.8420    0.8910 O   0  0  0  0  0  0  0  0  0  0  0  0
   -1.3610   -0.6700   -0.2530 C   0  0  0  0  0  0  0  0  0  0  0  0
   -1.8270   -3.7740    2.1980 Cl  0  0  0  0  0  0  0  0  0  0  0  0
    1.8510    1.5050    4.2650 O   0  0  0  0  0  0  0  0  0  0  0  0
    4.3460    2.1070    3.8180 O   0  0  0  0  0  0  0  0  0  0  0  0
    3.1570   -4.7510    1.4090 C   0  0  0  0  0  0  0  0  0  0  0  0
    0.4960    1.1730    4.5460 C   0  0  0  0  0  0  0  0  0  0  0  0
    5.7150    2.4310    3.6100 C   0  0  0  0  0  0  0  0  0  0  0  0
    1.0600    0.1870   -2.1340 H   0  0  0  0  0  0  0  0  0  0  0  0
    0.2280    1.5200    2.0950 H   0  0  0  0  0  0  0  0  0  0  0  0
    1.9330   -1.4420    0.0830 H   0  0  0  0  0  0  0  0  0  0  0  0
    3.3640    2.6150   -0.6400 H   0  0  0  0  0  0  0  0  0  0  0  0
    4.9790    2.6420    1.2320 H   0  0  0  0  0  0  0  0  0  0  0  0
   -2.9700   -1.7150    0.7140 H   0  0  0  0  0  0  0  0  0  0  0  0
   -2.0110    0.0310   -0.7550 H   0  0  0  0  0  0  0  0  0  0  0  0
    3.8490   -5.0290    0.6140 H   0  0  0  0  0  0  0  0  0  0  0  0
    2.6620   -5.6450    1.7890 H   0  0  0  0  0  0  0  0  0  0  0  0
    3.7070   -4.2690    2.2170 H   0  0  0  0  0  0  0  0  0  0  0  0
    0.3820    0.9830    5.6130 H   0  0  0  0  0  0  0  0  0  0  0  0
    0.2170    0.2800    3.9860 H   0  0  0  0  0  0  0  0  0  0  0  0
   -0.1490    2.0020    4.2540 H   0  0  0  0  0  0  0  0  0  0  0  0
    6.2450    2.3990    4.5620 H   0  0  0  0  0  0  0  0  0  0  0  0
    5.7910    3.4320    3.1860 H   0  0  0  0  0  0  0  0  0  0  0  0
    6.1590    1.7100    2.9230 H   0  0  0  0  0  0  0  0  0  0  0  0
  1  3  1  0  0  0  0
  1  4  1  0  0  0  0
  1  7  2  0  0  0  0
  1  8  2  0  0  0  0
  2  5  1  0  0  0  0
  2 10  1  0  0  0  0
  2 11  2  0  0  0  0
  3  6  1  0  0  0  0
  3 15  2  0  0  0  0
  4 12  1  0  0  0  0
  4 26  1  0  0  0  0
  5 14  2  0  0  0  0
  5 18  1  0  0  0  0
  6  9  2  0  0  0  0
  6 27  1  0  0  0  0
  9 13  1  0  0  0  0
  9 21  1  0  0  0  0
 10 17  2  0  0  0  0
 10 20  1  0  0  0  0
 11 12  1  0  0  0  0
 11 28  1  0  0  0  0
 12 19  2  0  0  0  0
 13 16  2  0  0  0  0
 13 22  1  0  0  0  0
 15 16  1  0  0  0  0
 15 29  1  0  0  0  0
 16 30  1  0  0  0  0
 17 19  1  0  0  0  0
 17 31  1  0  0  0  0
 18 23  1  0  0  0  0
 19 32  1  0  0  0  0
 21 24  1  0  0  0  0
 22 25  1  0  0  0  0
 23 33  1  0  0  0  0
 23 34  1  0  0  0  0
 23 35  1  0  0  0  0
 24 36  1  0  0  0  0
 24 37  1  0  0  0  0
 24 38  1  0  0  0  0
 25 39  1  0  0  0  0
 25 40  1  0  0  0  0
 25 41  1  0  0  0  0
M  END
>  <$CLUSTER>
138

>  <INDEX>
86193

$$$$
Chembridge 7896597
  MOE2020           3D

 44 46  0  0  0  0  0  0  0  0999 V2000
    0.4930   -0.5790   -0.4370 N   0  0  0  0  0  0  0  0  0  0  0  0
    1.2570    0.2980    0.3060 C   0  0  0  0  0  0  0  0  0  0  0  0
   -0.8450   -0.2550   -0.3650 C   0  0  0  0  0  0  0  0  0  0  0  0
    0.3800    1.2210    0.8730 N   0  0  0  0  0  0  0  0  0  0  0  0
   -1.0030    0.9820    0.5220 C   0  0  0  0  0  0  0  0  0  0  0  0
    2.4710    0.2880    0.4580 O   0  0  0  0  0  0  0  0  0  0  0  0
    2.6190   -8.7800   -0.3020 C   0  0  0  0  0  0  0  0  0  0  0  0
   -1.7760   -0.8380   -0.9060 O   0  0  0  0  0  0  0  0  0  0  0  0
    3.0960   -8.9540   -1.5990 C   0  0  0  0  0  0  0  0  0  0  0  0
    2.1510   -7.5300    0.1070 C   0  0  0  0  0  0  0  0  0  0  0  0
    1.0310   -1.7020   -1.1910 C   0  0  0  0  0  0  0  0  0  0  0  0
    3.1040   -7.8780   -2.4840 C   0  0  0  0  0  0  0  0  0  0  0  0
    2.1560   -6.4440   -0.7760 C   0  0  0  0  0  0  0  0  0  0  0  0
    2.6350   -6.6240   -2.0770 C   0  0  0  0  0  0  0  0  0  0  0  0
   -1.8350    0.6530    1.7550 C   0  0  0  0  0  0  0  0  0  0  0  0
   -1.5790    2.1440   -0.2760 C   0  0  0  0  0  0  0  0  0  0  0  0
    1.0840   -2.9610   -0.3400 C   0  0  0  0  0  0  0  0  0  0  0  0
    1.6740   -5.2780   -0.2590 O   0  0  0  0  0  0  0  0  0  0  0  0
    2.6610  -10.0490    0.4560 C   0  0  0  0  0  0  0  0  0  0  0  0
    3.6360  -10.8670   -0.3960 C   0  0  0  0  0  0  0  0  0  0  0  0
    3.5020  -10.3540   -1.8330 C   0  0  0  0  0  0  0  0  0  0  0  0
    1.6540   -4.1390   -1.1110 C   0  0  0  0  0  0  0  0  0  0  0  0
    0.6800    1.9800    1.4690 H   0  0  0  0  0  0  0  0  0  0  0  0
    1.7820   -7.4000    1.1140 H   0  0  0  0  0  0  0  0  0  0  0  0
    2.0390   -1.4560   -1.5250 H   0  0  0  0  0  0  0  0  0  0  0  0
    0.3960   -1.8850   -2.0580 H   0  0  0  0  0  0  0  0  0  0  0  0
    3.4740   -8.0120   -3.4900 H   0  0  0  0  0  0  0  0  0  0  0  0
    2.6430   -5.7940   -2.7690 H   0  0  0  0  0  0  0  0  0  0  0  0
   -1.3800   -0.1820    2.2880 H   0  0  0  0  0  0  0  0  0  0  0  0
   -2.8460    0.3820    1.4500 H   0  0  0  0  0  0  0  0  0  0  0  0
   -1.8740    1.5230    2.4100 H   0  0  0  0  0  0  0  0  0  0  0  0
   -0.9480    2.3370   -1.1440 H   0  0  0  0  0  0  0  0  0  0  0  0
   -1.6150    3.0340    0.3520 H   0  0  0  0  0  0  0  0  0  0  0  0
   -2.5860    1.8930   -0.6080 H   0  0  0  0  0  0  0  0  0  0  0  0
    0.0740   -3.2090   -0.0130 H   0  0  0  0  0  0  0  0  0  0  0  0
    1.7120   -2.7720    0.5310 H   0  0  0  0  0  0  0  0  0  0  0  0
    1.6790  -10.5200    0.5030 H   0  0  0  0  0  0  0  0  0  0  0  0
    3.0410   -9.8990    1.4670 H   0  0  0  0  0  0  0  0  0  0  0  0
    3.3790  -11.9250   -0.3490 H   0  0  0  0  0  0  0  0  0  0  0  0
    4.6560  -10.7250   -0.0400 H   0  0  0  0  0  0  0  0  0  0  0  0
    4.4500  -10.4110   -2.3680 H   0  0  0  0  0  0  0  0  0  0  0  0
    2.7400  -10.9040   -2.3850 H   0  0  0  0  0  0  0  0  0  0  0  0
    2.6680   -3.9070   -1.4370 H   0  0  0  0  0  0  0  0  0  0  0  0
    1.0300   -4.3430   -1.9810 H   0  0  0  0  0  0  0  0  0  0  0  0
  1  2  1  0  0  0  0
  1  3  1  0  0  0  0
  1 11  1  0  0  0  0
  2  4  1  0  0  0  0
  2  6  2  0  0  0  0
  3  5  1  0  0  0  0
  3  8  2  0  0  0  0
  4  5  1  0  0  0  0
  4 23  1  0  0  0  0
  5 15  1  0  0  0  0
  5 16  1  0  0  0  0
  7  9  2  0  0  0  0
  7 10  1  0  0  0  0
  7 19  1  0  0  0  0
  9 12  1  0  0  0  0
  9 21  1  0  0  0  0
 10 13  2  0  0  0  0
 10 24  1  0  0  0  0
 11 17  1  0  0  0  0
 11 25  1  0  0  0  0
 11 26  1  0  0  0  0
 12 14  2  0  0  0  0
 12 27  1  0  0  0  0
 13 14  1  0  0  0  0
 13 18  1  0  0  0  0
 14 28  1  0  0  0  0
 15 29  1  0  0  0  0
 15 30  1  0  0  0  0
 15 31  1  0  0  0  0
 16 32  1  0  0  0  0
 16 33  1  0  0  0  0
 16 34  1  0  0  0  0
 17 22  1  0  0  0  0
 17 35  1  0  0  0  0
 17 36  1  0  0  0  0
 18 22  1  0  0  0  0
 19 20  1  0  0  0  0
 19 37  1  0  0  0  0
 19 38  1  0  0  0  0
 20 21  1  0  0  0  0
 20 39  1  0  0  0  0
 20 40  1  0  0  0  0
 21 41  1  0  0  0  0
 21 42  1  0  0  0  0
 22 43  1  0  0  0  0
 22 44  1  0  0  0  0
M  END
>  <$CLUSTER>
139

>  <INDEX>
88996

$$$$
Tripos 1533-12763
  MOE2020           3D

 34 35  0  0  0  0  0  0  0  0999 V2000
    0.3070   -1.9300    0.8180 S   0  0  0  0  0  0  0  0  0  0  0  0
   -0.3340   -0.8700   -0.3780 N   0  0  0  0  0  0  0  0  0  0  0  0
    2.0160   -2.0190    0.3270 C   0  0  0  0  0  0  0  0  0  0  0  0
    2.4410   -2.9950   -0.5870 C   0  0  0  0  0  0  0  0  0  0  0  0
    0.2590   -1.3040    2.1250 O   0  0  0  0  0  0  0  0  0  0  0  0
   -0.2570   -3.2530    0.6220 O   0  0  0  0  0  0  0  0  0  0  0  0
    3.7880   -3.0780   -0.9430 C   0  0  0  0  0  0  0  0  0  0  0  0
    4.7140   -2.1960   -0.3850 C   0  0  0  0  0  0  0  0  0  0  0  0
   -0.1630    0.5460   -0.1320 C   0  0  0  0  0  0  0  0  0  0  0  0
    2.9530   -1.1390    0.8920 C   0  0  0  0  0  0  0  0  0  0  0  0
    4.2990   -1.2280    0.5310 C   0  0  0  0  0  0  0  0  0  0  0  0
   -1.5830   -0.8170   -2.5170 C   0  0  0  0  0  0  0  0  0  0  0  0
   -1.5500   -0.1070   -3.6320 C   0  0  0  0  0  0  0  0  0  0  0  0
    4.2720   -3.9710   -1.8080 F   0  0  0  0  0  0  0  0  0  0  0  0
   -0.3450   -1.3320   -1.7980 C   0  0  0  0  0  0  0  0  0  0  0  0
    5.9800   -2.3450   -0.7800 F   0  0  0  0  0  0  0  0  0  0  0  0
   -1.0740    1.1920    0.7120 C   0  0  0  0  0  0  0  0  0  0  0  0
    0.9250    1.2550   -0.6510 C   0  0  0  0  0  0  0  0  0  0  0  0
    1.0800    2.6100   -0.3520 C   0  0  0  0  0  0  0  0  0  0  0  0
   -0.9150    2.5460    1.0070 C   0  0  0  0  0  0  0  0  0  0  0  0
    0.1600    3.2550    0.4730 C   0  0  0  0  0  0  0  0  0  0  0  0
    1.7260   -3.6820   -1.0150 H   0  0  0  0  0  0  0  0  0  0  0  0
    2.6330   -0.3940    1.6050 H   0  0  0  0  0  0  0  0  0  0  0  0
    5.0190   -0.5480    0.9610 H   0  0  0  0  0  0  0  0  0  0  0  0
   -2.5480   -1.0450   -2.0900 H   0  0  0  0  0  0  0  0  0  0  0  0
   -2.4710    0.2260   -4.0880 H   0  0  0  0  0  0  0  0  0  0  0  0
   -0.6020    0.1400   -4.0870 H   0  0  0  0  0  0  0  0  0  0  0  0
   -0.3450   -2.4220   -1.8210 H   0  0  0  0  0  0  0  0  0  0  0  0
    0.5450   -0.9580   -2.3040 H   0  0  0  0  0  0  0  0  0  0  0  0
   -1.9010    0.6410    1.1350 H   0  0  0  0  0  0  0  0  0  0  0  0
    1.6450    0.7550   -1.2820 H   0  0  0  0  0  0  0  0  0  0  0  0
    1.9150    3.1600   -0.7610 H   0  0  0  0  0  0  0  0  0  0  0  0
   -1.6250    3.0450    1.6490 H   0  0  0  0  0  0  0  0  0  0  0  0
    0.2800    4.3040    0.6990 H   0  0  0  0  0  0  0  0  0  0  0  0
  1  2  1  0  0  0  0
  1  3  1  0  0  0  0
  1  5  2  0  0  0  0
  1  6  2  0  0  0  0
  2  9  1  0  0  0  0
  2 15  1  0  0  0  0
  3  4  1  0  0  0  0
  3 10  2  0  0  0  0
  4  7  2  0  0  0  0
  4 22  1  0  0  0  0
  7  8  1  0  0  0  0
  7 14  1  0  0  0  0
  8 11  2  0  0  0  0
  8 16  1  0  0  0  0
  9 17  1  0  0  0  0
  9 18  2  0  0  0  0
 10 11  1  0  0  0  0
 10 23  1  0  0  0  0
 11 24  1  0  0  0  0
 12 13  2  0  0  0  0
 12 15  1  0  0  0  0
 12 25  1  0  0  0  0
 13 26  1  0  0  0  0
 13 27  1  0  0  0  0
 15 28  1  0  0  0  0
 15 29  1  0  0  0  0
 17 20  2  0  0  0  0
 17 30  1  0  0  0  0
 18 19  1  0  0  0  0
 18 31  1  0  0  0  0
 19 21  2  0  0  0  0
 19 32  1  0  0  0  0
 20 21  1  0  0  0  0
 20 33  1  0  0  0  0
 21 34  1  0  0  0  0
M  END
>  <$CLUSTER>
140

>  <INDEX>
454839

$$$$
Specs AN-329/12267165
  MOE2020           3D

 39 40  0  0  0  0  0  0  0  0999 V2000
   -0.1030    0.0100   -0.0960 C   0  0  0  0  0  0  0  0  0  0  0  0
    1.0820    0.7860    0.0090 N   0  0  0  0  0  0  0  0  0  0  0  0
   -1.0040    0.2890   -1.1510 C   0  0  0  0  0  0  0  0  0  0  0  0
    2.0910    0.6800    0.9590 C   0  0  0  0  0  0  0  0  0  0  0  0
    6.2350    2.5310    2.5000 C   0  0  0  0  0  0  0  0  0  0  0  0
    5.2130    2.5770    1.5040 C   0  0  0  0  0  0  0  0  0  0  0  0
    4.1890    1.6480    1.7020 O   0  0  0  0  0  0  0  0  0  0  0  0
    7.3180    3.4190    2.4070 C   0  0  0  0  0  0  0  0  0  0  0  0
    2.1690   -0.1020    1.9010 O   0  0  0  0  0  0  0  0  0  0  0  0
   -2.1830   -0.4670   -1.2730 C   0  0  0  0  0  0  0  0  0  0  0  0
    5.3110    3.4940    0.4730 C   0  0  0  0  0  0  0  0  0  0  0  0
    3.1780    1.6970    0.7120 C   0  0  0  0  0  0  0  0  0  0  0  0
    7.3970    4.3340    1.3600 C   0  0  0  0  0  0  0  0  0  0  0  0
    6.3950    4.3710    0.3940 C   0  0  0  0  0  0  0  0  0  0  0  0
    8.7210    5.4020    1.2700 Cl  0  0  0  0  0  0  0  0  0  0  0  0
   -0.4140   -1.0200    0.8030 C   0  0  0  0  0  0  0  0  0  0  0  0
   -1.5910   -1.7620    0.6660 C   0  0  0  0  0  0  0  0  0  0  0  0
   -0.7490    1.3770   -2.1610 C   0  0  0  0  0  0  0  0  0  0  0  0
    6.1730    1.5530    3.6410 C   0  0  0  0  0  0  0  0  0  0  0  0
   -2.4750   -1.4860   -0.3700 C   0  0  0  0  0  0  0  0  0  0  0  0
   -3.1380   -0.1720   -2.3890 C   0  0  0  0  0  0  0  0  0  0  0  0
    1.2070    1.5020   -0.6920 H   0  0  0  0  0  0  0  0  0  0  0  0
    8.0970    3.3920    3.1540 H   0  0  0  0  0  0  0  0  0  0  0  0
    4.5390    3.5320   -0.2810 H   0  0  0  0  0  0  0  0  0  0  0  0
    2.7340    2.6930    0.7120 H   0  0  0  0  0  0  0  0  0  0  0  0
    3.6290    1.5000   -0.2610 H   0  0  0  0  0  0  0  0  0  0  0  0
    6.4560    5.0800   -0.4190 H   0  0  0  0  0  0  0  0  0  0  0  0
    0.2650   -1.2430    1.6130 H   0  0  0  0  0  0  0  0  0  0  0  0
   -1.8140   -2.5520    1.3680 H   0  0  0  0  0  0  0  0  0  0  0  0
    0.1970    1.8690   -1.9340 H   0  0  0  0  0  0  0  0  0  0  0  0
   -1.5570    2.1070   -2.1200 H   0  0  0  0  0  0  0  0  0  0  0  0
   -0.7020    0.9420   -3.1590 H   0  0  0  0  0  0  0  0  0  0  0  0
    5.2700    0.9480    3.5530 H   0  0  0  0  0  0  0  0  0  0  0  0
    6.1550    2.0970    4.5850 H   0  0  0  0  0  0  0  0  0  0  0  0
    7.0490    0.9050    3.6120 H   0  0  0  0  0  0  0  0  0  0  0  0
   -3.3840   -2.0590   -0.4740 H   0  0  0  0  0  0  0  0  0  0  0  0
   -2.7500    0.6490   -2.9920 H   0  0  0  0  0  0  0  0  0  0  0  0
   -4.1060    0.1070   -1.9740 H   0  0  0  0  0  0  0  0  0  0  0  0
   -3.2520   -1.0580   -3.0130 H   0  0  0  0  0  0  0  0  0  0  0  0
  1  2  1  0  0  0  0
  1  3  2  0  0  0  0
  1 16  1  0  0  0  0
  2  4  1  0  0  0  0
  2 22  1  0  0  0  0
  3 10  1  0  0  0  0
  3 18  1  0  0  0  0
  4  9  2  0  0  0  0
  4 12  1  0  0  0  0
  5  6  2  0  0  0  0
  5  8  1  0  0  0  0
  5 19  1  0  0  0  0
  6  7  1  0  0  0  0
  6 11  1  0  0  0  0
  7 12  1  0  0  0  0
  8 13  2  0  0  0  0
  8 23  1  0  0  0  0
 10 20  2  0  0  0  0
 10 21  1  0  0  0  0
 11 14  2  0  0  0  0
 11 24  1  0  0  0  0
 12 25  1  0  0  0  0
 12 26  1  0  0  0  0
 13 14  1  0  0  0  0
 13 15  1  0  0  0  0
 14 27  1  0  0  0  0
 16 17  2  0  0  0  0
 16 28  1  0  0  0  0
 17 20  1  0  0  0  0
 17 29  1  0  0  0  0
 18 30  1  0  0  0  0
 18 31  1  0  0  0  0
 18 32  1  0  0  0  0
 19 33  1  0  0  0  0
 19 34  1  0  0  0  0
 19 35  1  0  0  0  0
 20 36  1  0  0  0  0
 21 37  1  0  0  0  0
 21 38  1  0  0  0  0
 21 39  1  0  0  0  0
M  END
>  <$CLUSTER>
141

>  <INDEX>
525520

$$$$
Chembridge 7978910
  MOE2020           3D

 54 56  0  0  0  0  0  0  0  0999 V2000
    0.5050    2.0520   -0.7350 S   0  0  0  0  0  0  0  0  0  0  0  0
    0.6050    0.4240   -1.2640 N   0  0  0  0  0  0  0  0  0  0  0  0
    1.6930    2.0340    0.5890 C   0  0  0  0  0  0  0  0  0  0  0  0
    1.0520    2.8960   -1.7810 O   0  0  0  0  0  0  0  0  0  0  0  0
   -0.7960    2.3370   -0.1630 O   0  0  0  0  0  0  0  0  0  0  0  0
    6.3740    2.3560    5.0090 C   0  0  0  0  0  0  0  0  0  0  0  0
    7.7260    2.6600    4.9160 N   0  0  0  0  0  0  0  0  0  0  0  0
    5.8190    2.0750    6.0580 O   0  0  0  0  0  0  0  0  0  0  0  0
    1.2650    1.7540    1.9030 C   0  0  0  0  0  0  0  0  0  0  0  0
    3.0340    2.3720    0.3590 C   0  0  0  0  0  0  0  0  0  0  0  0
    0.0220   -0.5940   -0.4320 C   0  0  0  0  0  0  0  0  0  0  0  0
    4.3180    2.0990    3.8350 O   0  0  0  0  0  0  0  0  0  0  0  0
    5.6950    2.4210    3.6520 C   0  0  0  0  0  0  0  0  0  0  0  0
    3.5180    2.0990    2.7120 C   0  0  0  0  0  0  0  0  0  0  0  0
    2.1810    1.7790    2.9560 C   0  0  0  0  0  0  0  0  0  0  0  0
    3.9440    2.3950    1.4160 C   0  0  0  0  0  0  0  0  0  0  0  0
   -1.0630   -2.5590    1.2270 C   0  0  0  0  0  0  0  0  0  0  0  0
    0.8630   -1.5010    0.2200 C   0  0  0  0  0  0  0  0  0  0  0  0
   -1.3610   -0.6700   -0.2530 C   0  0  0  0  0  0  0  0  0  0  0  0
    8.6370    2.6700    6.0560 C   0  0  0  0  0  0  0  0  0  0  0  0
    0.3180   -2.4830    1.0480 C   0  0  0  0  0  0  0  0  0  0  0  0
   -1.9010   -1.6540    0.5760 C   0  0  0  0  0  0  0  0  0  0  0  0
   -1.6470   -3.6090    2.1150 C   0  0  0  0  0  0  0  0  0  0  0  0
    9.7490    3.6930    5.8490 C   0  0  0  0  0  0  0  0  0  0  0  0
    9.2120    1.2760    6.2880 C   0  0  0  0  0  0  0  0  0  0  0  0
   10.2180    1.2560    7.4360 C   0  0  0  0  0  0  0  0  0  0  0  0
   10.7550    3.6840    6.9930 C   0  0  0  0  0  0  0  0  0  0  0  0
   11.3230    2.2870    7.2280 C   0  0  0  0  0  0  0  0  0  0  0  0
    1.0600    0.1870   -2.1340 H   0  0  0  0  0  0  0  0  0  0  0  0
    8.1010    2.8870    4.0060 H   0  0  0  0  0  0  0  0  0  0  0  0
    0.2280    1.5200    2.0950 H   0  0  0  0  0  0  0  0  0  0  0  0
    3.3640    2.6150   -0.6400 H   0  0  0  0  0  0  0  0  0  0  0  0
    6.1560    1.7040    2.9730 H   0  0  0  0  0  0  0  0  0  0  0  0
    5.7890    3.4250    3.2390 H   0  0  0  0  0  0  0  0  0  0  0  0
    1.8550    1.5510    3.9600 H   0  0  0  0  0  0  0  0  0  0  0  0
    4.9790    2.6420    1.2320 H   0  0  0  0  0  0  0  0  0  0  0  0
    1.9330   -1.4420    0.0830 H   0  0  0  0  0  0  0  0  0  0  0  0
   -2.0110    0.0310   -0.7550 H   0  0  0  0  0  0  0  0  0  0  0  0
    8.0770    2.9600    6.9450 H   0  0  0  0  0  0  0  0  0  0  0  0
    0.9660   -3.1850    1.5510 H   0  0  0  0  0  0  0  0  0  0  0  0
   -2.9700   -1.7150    0.7140 H   0  0  0  0  0  0  0  0  0  0  0  0
   -0.8460   -4.2180    2.5330 H   0  0  0  0  0  0  0  0  0  0  0  0
   -2.3200   -4.2410    1.5360 H   0  0  0  0  0  0  0  0  0  0  0  0
   -2.2020   -3.1330    2.9240 H   0  0  0  0  0  0  0  0  0  0  0  0
    9.3050    4.6860    5.7790 H   0  0  0  0  0  0  0  0  0  0  0  0
   10.2710    3.4620    4.9200 H   0  0  0  0  0  0  0  0  0  0  0  0
    9.7110    0.9450    5.3770 H   0  0  0  0  0  0  0  0  0  0  0  0
    8.3960    0.5930    6.5240 H   0  0  0  0  0  0  0  0  0  0  0  0
   10.6660    0.2640    7.4970 H   0  0  0  0  0  0  0  0  0  0  0  0
    9.6970    1.4780    8.3670 H   0  0  0  0  0  0  0  0  0  0  0  0
   10.2590    4.0220    7.9030 H   0  0  0  0  0  0  0  0  0  0  0  0
   11.5730    4.3630    6.7510 H   0  0  0  0  0  0  0  0  0  0  0  0
   11.9180    1.9970    6.3620 H   0  0  0  0  0  0  0  0  0  0  0  0
   11.9580    2.3080    8.1140 H   0  0  0  0  0  0  0  0  0  0  0  0
  1  2  1  0  0  0  0
  1  3  1  0  0  0  0
  1  4  2  0  0  0  0
  1  5  2  0  0  0  0
  2 11  1  0  0  0  0
  2 29  1  0  0  0  0
  3  9  2  0  0  0  0
  3 10  1  0  0  0  0
  6  7  1  0  0  0  0
  6  8  2  0  0  0  0
  6 13  1  0  0  0  0
  7 20  1  0  0  0  0
  7 30  1  0  0  0  0
  9 15  1  0  0  0  0
  9 31  1  0  0  0  0
 10 16  2  0  0  0  0
 10 32  1  0  0  0  0
 11 18  2  0  0  0  0
 11 19  1  0  0  0  0
 12 13  1  0  0  0  0
 12 14  1  0  0  0  0
 13 33  1  0  0  0  0
 13 34  1  0  0  0  0
 14 15  2  0  0  0  0
 14 16  1  0  0  0  0
 15 35  1  0  0  0  0
 16 36  1  0  0  0  0
 17 21  2  0  0  0  0
 17 22  1  0  0  0  0
 17 23  1  0  0  0  0
 18 21  1  0  0  0  0
 18 37  1  0  0  0  0
 19 22  2  0  0  0  0
 19 38  1  0  0  0  0
 20 24  1  0  0  0  0
 20 25  1  0  0  0  0
 20 39  1  0  0  0  0
 21 40  1  0  0  0  0
 22 41  1  0  0  0  0
 23 42  1  0  0  0  0
 23 43  1  0  0  0  0
 23 44  1  0  0  0  0
 24 27  1  0  0  0  0
 24 45  1  0  0  0  0
 24 46  1  0  0  0  0
 25 26  1  0  0  0  0
 25 47  1  0  0  0  0
 25 48  1  0  0  0  0
 26 28  1  0  0  0  0
 26 49  1  0  0  0  0
 26 50  1  0  0  0  0
 27 28  1  0  0  0  0
 27 51  1  0  0  0  0
 27 52  1  0  0  0  0
 28 53  1  0  0  0  0
 28 54  1  0  0  0  0
M  END
>  <$CLUSTER>
142

>  <INDEX>
98328

$$$$
Chembridge 5547298
  MOE2020           3D

 37 39  0  0  0  0  0  0  0  0999 V2000
   -5.4570   -0.8380   -1.2790 C   0  0  0  0  0  0  0  0  0  0  0  0
   -6.2650    0.2010   -1.2280 N   0  0  0  0  0  0  0  0  0  0  0  0
    0.2750    1.7140   -0.2270 N   0  3  0  0  0  0  0  0  0  0  0  0
   -4.1530   -0.8010   -0.9320 N   0  0  0  0  0  0  0  0  0  0  0  0
   -7.5260   -0.1710   -1.6470 C   0  0  0  0  0  0  0  0  0  0  0  0
   -0.1190    0.3200   -0.1180 C   0  0  0  0  0  0  0  0  0  0  0  0
   -3.1690   -1.7640   -0.9220 C   0  0  0  0  0  0  0  0  0  0  0  0
   -6.1670   -2.2950   -1.8260 S   0  0  0  0  0  0  0  0  0  0  0  0
   -1.4010   -0.0210   -0.5680 C   0  0  0  0  0  0  0  0  0  0  0  0
   -7.6670   -1.4910   -2.0130 C   0  0  0  0  0  0  0  0  0  0  0  0
   -1.8280   -1.3420   -0.4670 C   0  0  0  0  0  0  0  0  0  0  0  0
    0.6550    2.2910    0.8040 O   0  5  0  0  0  0  0  0  0  0  0  0
   -8.6130    0.8110   -1.6850 C   0  0  0  0  0  0  0  0  0  0  0  0
    0.1900    2.2450   -1.3470 O   0  0  0  0  0  0  0  0  0  0  0  0
    0.7620   -0.6370    0.4200 C   0  0  0  0  0  0  0  0  0  0  0  0
   -3.3660   -2.9280   -1.2590 O   0  0  0  0  0  0  0  0  0  0  0  0
   -0.9810   -2.3060    0.0790 C   0  0  0  0  0  0  0  0  0  0  0  0
    0.2980   -1.9580    0.5200 C   0  0  0  0  0  0  0  0  0  0  0  0
   -9.9610    0.4250   -1.6490 C   0  0  0  0  0  0  0  0  0  0  0  0
   -8.3100    2.1800   -1.7490 C   0  0  0  0  0  0  0  0  0  0  0  0
  -10.6620    2.7390   -1.7540 C   0  0  0  0  0  0  0  0  0  0  0  0
   -9.3290    3.1370   -1.7850 C   0  0  0  0  0  0  0  0  0  0  0  0
  -10.9780    1.3840   -1.6850 C   0  0  0  0  0  0  0  0  0  0  0  0
  -11.5710    3.7120   -1.7930 F   0  0  0  0  0  0  0  0  0  0  0  0
    2.1490   -0.3070    0.9050 C   0  0  0  0  0  0  0  0  0  0  0  0
   -3.8390    0.1070   -0.6200 H   0  0  0  0  0  0  0  0  0  0  0  0
   -2.0510    0.7320   -0.9880 H   0  0  0  0  0  0  0  0  0  0  0  0
   -8.5810   -1.9480   -2.3630 H   0  0  0  0  0  0  0  0  0  0  0  0
   -1.3160   -3.3290    0.1620 H   0  0  0  0  0  0  0  0  0  0  0  0
    0.9390   -2.7160    0.9440 H   0  0  0  0  0  0  0  0  0  0  0  0
  -10.2160   -0.6230   -1.5930 H   0  0  0  0  0  0  0  0  0  0  0  0
   -7.2780    2.4980   -1.7710 H   0  0  0  0  0  0  0  0  0  0  0  0
   -9.0810    4.1870   -1.8370 H   0  0  0  0  0  0  0  0  0  0  0  0
  -12.0120    1.0730   -1.6590 H   0  0  0  0  0  0  0  0  0  0  0  0
    2.3440    0.7550    0.7530 H   0  0  0  0  0  0  0  0  0  0  0  0
    2.8780   -0.8940    0.3470 H   0  0  0  0  0  0  0  0  0  0  0  0
    2.2290   -0.5430    1.9660 H   0  0  0  0  0  0  0  0  0  0  0  0
  1  2  2  0  0  0  0
  1  4  1  0  0  0  0
  1  8  1  0  0  0  0
  2  5  1  0  0  0  0
  3  6  1  0  0  0  0
  3 12  1  0  0  0  0
  3 14  2  0  0  0  0
  4  7  1  0  0  0  0
  4 26  1  0  0  0  0
  5 10  2  0  0  0  0
  5 13  1  0  0  0  0
  6  9  2  0  0  0  0
  6 15  1  0  0  0  0
  7 11  1  0  0  0  0
  7 16  2  0  0  0  0
  8 10  1  0  0  0  0
  9 11  1  0  0  0  0
  9 27  1  0  0  0  0
 10 28  1  0  0  0  0
 11 17  2  0  0  0  0
 13 19  1  0  0  0  0
 13 20  2  0  0  0  0
 15 18  2  0  0  0  0
 15 25  1  0  0  0  0
 17 18  1  0  0  0  0
 17 29  1  0  0  0  0
 18 30  1  0  0  0  0
 19 23  2  0  0  0  0
 19 31  1  0  0  0  0
 20 22  1  0  0  0  0
 20 32  1  0  0  0  0
 21 22  2  0  0  0  0
 21 23  1  0  0  0  0
 21 24  1  0  0  0  0
 22 33  1  0  0  0  0
 23 34  1  0  0  0  0
 25 35  1  0  0  0  0
 25 36  1  0  0  0  0
 25 37  1  0  0  0  0
M  CHG  1   3   1
M  CHG  1  12  -1
M  END
>  <$CLUSTER>
143

>  <INDEX>
48273

$$$$
Chembridge 7966844
  MOE2020           3D

 48 51  0  0  0  0  0  0  0  0999 V2000
    0.1830    0.1770    0.5830 N   0  0  0  0  0  0  0  0  0  0  0  0
    4.9610   -2.5110    0.8490 N   0  0  0  0  0  0  0  0  0  0  0  0
    1.5630    0.1050    0.6990 C   0  0  0  0  0  0  0  0  0  0  0  0
    4.8520   -3.1420    2.0550 C   0  0  0  0  0  0  0  0  0  0  0  0
    1.9370    0.4570    1.9080 N   0  0  0  0  0  0  0  0  0  0  0  0
    0.8170    0.7900    2.6150 N   0  0  0  0  0  0  0  0  0  0  0  0
    4.3080   -2.4230    3.0400 N   0  0  0  0  0  0  0  0  0  0  0  0
   -0.2320    0.6310    1.8330 C   0  0  0  0  0  0  0  0  0  0  0  0
    4.4680   -1.3540    1.1450 C   0  0  0  0  0  0  0  0  0  0  0  0
    4.0340   -1.2020    2.4150 O   0  0  0  0  0  0  0  0  0  0  0  0
    5.3100   -4.5380    2.2250 C   0  0  0  0  0  0  0  0  0  0  0  0
    2.6570   -0.2060   -0.6150 S   0  0  0  0  0  0  0  0  0  0  0  0
    5.1940   -5.1940    3.4610 C   0  0  0  0  0  0  0  0  0  0  0  0
    5.6320   -6.5130    3.6090 C   0  0  0  0  0  0  0  0  0  0  0  0
   -0.6380   -0.1360   -0.5340 C   0  0  0  0  0  0  0  0  0  0  0  0
    6.1890   -7.1920    2.5280 C   0  0  0  0  0  0  0  0  0  0  0  0
    4.2550   -0.1560    0.2240 C   0  0  0  0  0  0  0  0  0  0  0  0
    5.8740   -5.2330    1.1450 C   0  0  0  0  0  0  0  0  0  0  0  0
    6.3100   -6.5520    1.2970 C   0  0  0  0  0  0  0  0  0  0  0  0
    5.5480   -7.2210    4.7940 O   0  0  0  0  0  0  0  0  0  0  0  0
    6.5910   -8.4860    2.7690 O   0  0  0  0  0  0  0  0  0  0  0  0
   -1.6360    0.7980    2.2840 C   0  0  0  0  0  0  0  0  0  0  0  0
   -1.7250    0.6840   -0.8590 C   0  0  0  0  0  0  0  0  0  0  0  0
   -0.3750   -1.2730   -1.3090 C   0  0  0  0  0  0  0  0  0  0  0  0
    4.9840   -6.5600    5.9200 C   0  0  0  0  0  0  0  0  0  0  0  0
    7.1650   -9.2070    1.6860 C   0  0  0  0  0  0  0  0  0  0  0  0
   -1.1900   -1.5790   -2.4010 C   0  0  0  0  0  0  0  0  0  0  0  0
   -2.5340    0.3730   -1.9540 C   0  0  0  0  0  0  0  0  0  0  0  0
   -2.2680   -0.7570   -2.7250 C   0  0  0  0  0  0  0  0  0  0  0  0
    4.7630   -4.6750    4.3040 H   0  0  0  0  0  0  0  0  0  0  0  0
    5.0440   -0.1480   -0.5270 H   0  0  0  0  0  0  0  0  0  0  0  0
    4.3100    0.7560    0.8180 H   0  0  0  0  0  0  0  0  0  0  0  0
    5.9720   -4.7440    0.1870 H   0  0  0  0  0  0  0  0  0  0  0  0
    6.7420   -7.0760    0.4580 H   0  0  0  0  0  0  0  0  0  0  0  0
   -2.3110    0.6110    1.4480 H   0  0  0  0  0  0  0  0  0  0  0  0
   -1.7820    1.8150    2.6490 H   0  0  0  0  0  0  0  0  0  0  0  0
   -1.8470    0.0910    3.0860 H   0  0  0  0  0  0  0  0  0  0  0  0
   -1.9380    1.5580   -0.2620 H   0  0  0  0  0  0  0  0  0  0  0  0
    0.4590   -1.9130   -1.0620 H   0  0  0  0  0  0  0  0  0  0  0  0
    4.9830   -7.2360    6.7750 H   0  0  0  0  0  0  0  0  0  0  0  0
    3.9610   -6.2620    5.6910 H   0  0  0  0  0  0  0  0  0  0  0  0
    5.5760   -5.6760    6.1560 H   0  0  0  0  0  0  0  0  0  0  0  0
    7.4340  -10.2090    2.0190 H   0  0  0  0  0  0  0  0  0  0  0  0
    8.0580   -8.6880    1.3370 H   0  0  0  0  0  0  0  0  0  0  0  0
    6.4430   -9.2760    0.8720 H   0  0  0  0  0  0  0  0  0  0  0  0
   -0.9840   -2.4560   -2.9970 H   0  0  0  0  0  0  0  0  0  0  0  0
   -3.3690    1.0110   -2.2040 H   0  0  0  0  0  0  0  0  0  0  0  0
   -2.8950   -0.9950   -3.5710 H   0  0  0  0  0  0  0  0  0  0  0  0
  1  3  1  0  0  0  0
  1  8  1  0  0  0  0
  1 15  1  0  0  0  0
  2  4  1  0  0  0  0
  2  9  2  0  0  0  0
  3  5  2  0  0  0  0
  3 12  1  0  0  0  0
  4  7  2  0  0  0  0
  4 11  1  0  0  0  0
  5  6  1  0  0  0  0
  6  8  2  0  0  0  0
  7 10  1  0  0  0  0
  8 22  1  0  0  0  0
  9 10  1  0  0  0  0
  9 17  1  0  0  0  0
 11 13  1  0  0  0  0
 11 18  2  0  0  0  0
 12 17  1  0  0  0  0
 13 14  2  0  0  0  0
 13 30  1  0  0  0  0
 14 16  1  0  0  0  0
 14 20  1  0  0  0  0
 15 23  1  0  0  0  0
 15 24  2  0  0  0  0
 16 19  2  0  0  0  0
 16 21  1  0  0  0  0
 17 31  1  0  0  0  0
 17 32  1  0  0  0  0
 18 19  1  0  0  0  0
 18 33  1  0  0  0  0
 19 34  1  0  0  0  0
 20 25  1  0  0  0  0
 21 26  1  0  0  0  0
 22 35  1  0  0  0  0
 22 36  1  0  0  0  0
 22 37  1  0  0  0  0
 23 28  2  0  0  0  0
 23 38  1  0  0  0  0
 24 27  1  0  0  0  0
 24 39  1  0  0  0  0
 25 40  1  0  0  0  0
 25 41  1  0  0  0  0
 25 42  1  0  0  0  0
 26 43  1  0  0  0  0
 26 44  1  0  0  0  0
 26 45  1  0  0  0  0
 27 29  2  0  0  0  0
 27 46  1  0  0  0  0
 28 29  1  0  0  0  0
 28 47  1  0  0  0  0
 29 48  1  0  0  0  0
M  END
>  <$CLUSTER>
144

>  <INDEX>
96570

$$$$
Chembridge 7969860
  MOE2020           3D

 39 40  0  0  0  0  0  0  0  0999 V2000
    0.0890   -0.1180   -0.5210 C   0  0  0  0  0  0  0  0  0  0  0  0
    1.1330   -0.3350    0.5580 C   0  0  0  0  0  0  0  0  0  0  0  0
   -1.1750    0.3470   -0.1330 N   0  0  0  0  0  0  0  0  0  0  0  0
    1.7640    0.7970    0.9590 N   0  0  0  0  0  0  0  0  0  0  0  0
    0.6320   -0.4650   -2.0670 S   0  0  0  0  0  0  0  0  0  0  0  0
    4.3000    0.2170    3.6310 C   0  0  0  0  0  0  0  0  0  0  0  0
    2.7680    0.9960    1.9190 C   0  0  0  0  0  0  0  0  0  0  0  0
    1.3230   -1.4560    1.0180 O   0  0  0  0  0  0  0  0  0  0  0  0
    3.3020   -0.0440    2.6860 C   0  0  0  0  0  0  0  0  0  0  0  0
    4.7740    1.5140    3.8170 C   0  0  0  0  0  0  0  0  0  0  0  0
    4.2480    2.5550    3.0580 C   0  0  0  0  0  0  0  0  0  0  0  0
    3.2520    2.2980    2.1150 C   0  0  0  0  0  0  0  0  0  0  0  0
   -2.2380    0.6750   -1.0850 C   0  0  0  0  0  0  0  0  0  0  0  0
   -1.5270    0.5550    1.2730 C   0  0  0  0  0  0  0  0  0  0  0  0
    4.8600   -0.9080    4.4430 C   0  0  0  0  0  0  0  0  0  0  0  0
    5.8390    1.7870    4.8260 C   0  0  0  0  0  0  0  0  0  0  0  0
   -1.9520    2.0130    1.4970 C   0  0  0  0  0  0  0  0  0  0  0  0
   -2.6750    2.1350   -0.9020 C   0  0  0  0  0  0  0  0  0  0  0  0
   -3.0580    2.4460    0.5410 C   0  0  0  0  0  0  0  0  0  0  0  0
    1.4600    1.6370    0.4880 H   0  0  0  0  0  0  0  0  0  0  0  0
    2.9420   -1.0530    2.5480 H   0  0  0  0  0  0  0  0  0  0  0  0
    4.6110    3.5620    3.1990 H   0  0  0  0  0  0  0  0  0  0  0  0
    2.8490    3.1110    1.5290 H   0  0  0  0  0  0  0  0  0  0  0  0
   -3.0910    0.0190   -0.9140 H   0  0  0  0  0  0  0  0  0  0  0  0
   -1.8690    0.5330   -2.1010 H   0  0  0  0  0  0  0  0  0  0  0  0
   -0.6630    0.3310    1.8990 H   0  0  0  0  0  0  0  0  0  0  0  0
   -2.3510   -0.1060    1.5410 H   0  0  0  0  0  0  0  0  0  0  0  0
    4.3700   -1.8400    4.1600 H   0  0  0  0  0  0  0  0  0  0  0  0
    4.6870   -0.7140    5.5010 H   0  0  0  0  0  0  0  0  0  0  0  0
    5.9310   -0.9900    4.2600 H   0  0  0  0  0  0  0  0  0  0  0  0
    6.1220    0.8560    5.3170 H   0  0  0  0  0  0  0  0  0  0  0  0
    5.4630    2.4900    5.5700 H   0  0  0  0  0  0  0  0  0  0  0  0
    6.7100    2.2150    4.3290 H   0  0  0  0  0  0  0  0  0  0  0  0
   -1.0860    2.6580    1.3470 H   0  0  0  0  0  0  0  0  0  0  0  0
   -2.3110    2.1200    2.5200 H   0  0  0  0  0  0  0  0  0  0  0  0
   -3.5360    2.3270   -1.5430 H   0  0  0  0  0  0  0  0  0  0  0  0
   -1.8520    2.7870   -1.1950 H   0  0  0  0  0  0  0  0  0  0  0  0
   -3.2210    3.5190    0.6450 H   0  0  0  0  0  0  0  0  0  0  0  0
   -3.9760    1.9130    0.7900 H   0  0  0  0  0  0  0  0  0  0  0  0
  1  2  1  0  0  0  0
  1  3  1  0  0  0  0
  1  5  2  0  0  0  0
  2  4  1  0  0  0  0
  2  8  2  0  0  0  0
  3 13  1  0  0  0  0
  3 14  1  0  0  0  0
  4  7  1  0  0  0  0
  4 20  1  0  0  0  0
  6  9  2  0  0  0  0
  6 10  1  0  0  0  0
  6 15  1  0  0  0  0
  7  9  1  0  0  0  0
  7 12  2  0  0  0  0
  9 21  1  0  0  0  0
 10 11  2  0  0  0  0
 10 16  1  0  0  0  0
 11 12  1  0  0  0  0
 11 22  1  0  0  0  0
 12 23  1  0  0  0  0
 13 18  1  0  0  0  0
 13 24  1  0  0  0  0
 13 25  1  0  0  0  0
 14 17  1  0  0  0  0
 14 26  1  0  0  0  0
 14 27  1  0  0  0  0
 15 28  1  0  0  0  0
 15 29  1  0  0  0  0
 15 30  1  0  0  0  0
 16 31  1  0  0  0  0
 16 32  1  0  0  0  0
 16 33  1  0  0  0  0
 17 19  1  0  0  0  0
 17 34  1  0  0  0  0
 17 35  1  0  0  0  0
 18 19  1  0  0  0  0
 18 36  1  0  0  0  0
 18 37  1  0  0  0  0
 19 38  1  0  0  0  0
 19 39  1  0  0  0  0
M  END
>  <$CLUSTER>
145

>  <INDEX>
97159

$$$$
Chembridge 7954201
  MOE2020           3D

 44 46  0  0  0  0  0  0  0  0999 V2000
   -0.9010    0.1320    0.1810 C   0  0  0  0  0  0  0  0  0  0  0  0
    0.9760   -0.8140   -0.5940 N   0  0  0  0  0  0  0  0  0  0  0  0
   -0.3340   -1.0440   -0.2520 C   0  0  0  0  0  0  0  0  0  0  0  0
    0.1280    1.1280    0.0940 C   0  0  0  0  0  0  0  0  0  0  0  0
    1.3040    0.5190   -0.3940 C   0  0  0  0  0  0  0  0  0  0  0  0
    2.5480   -2.6150    0.0320 C   0  0  0  0  0  0  0  0  0  0  0  0
    1.8190   -1.8910   -1.0870 C   0  0  0  0  0  0  0  0  0  0  0  0
    1.7910   -3.3890    0.9270 N   0  0  0  0  0  0  0  0  0  0  0  0
   -2.2830    0.2870    0.6310 C   0  0  0  0  0  0  0  0  0  0  0  0
    3.7710   -2.5080    0.1490 O   0  0  0  0  0  0  0  0  0  0  0  0
    2.5000    1.2670   -0.5820 C   0  0  0  0  0  0  0  0  0  0  0  0
   -2.7210    1.3740    1.0040 O   0  0  0  0  0  0  0  0  0  0  0  0
    0.1410    2.5080    0.3970 C   0  0  0  0  0  0  0  0  0  0  0  0
    2.4490   -4.0590    2.0430 C   0  0  0  0  0  0  0  0  0  0  0  0
    0.3430   -3.5660    0.8440 C   0  0  0  0  0  0  0  0  0  0  0  0
    1.2990    3.2550    0.2110 C   0  0  0  0  0  0  0  0  0  0  0  0
   -3.1850   -0.9240    0.6330 C   0  0  0  0  0  0  0  0  0  0  0  0
    2.4470    2.6450   -0.2700 C   0  0  0  0  0  0  0  0  0  0  0  0
    3.8180    0.7460   -1.1140 C   0  0  0  0  0  0  0  0  0  0  0  0
    0.0400   -3.5090    2.3830 C   0  0  0  0  0  0  0  0  0  0  0  0
    1.3350   -3.8130    3.1200 C   0  0  0  0  0  0  0  0  0  0  0  0
    3.9140    0.8890   -2.6260 C   0  0  0  0  0  0  0  0  0  0  0  0
   -0.8390   -1.9970   -0.3130 H   0  0  0  0  0  0  0  0  0  0  0  0
    2.5570   -1.4730   -1.7720 H   0  0  0  0  0  0  0  0  0  0  0  0
    1.1950   -2.6080   -1.6190 H   0  0  0  0  0  0  0  0  0  0  0  0
   -0.7520    2.9840    0.7740 H   0  0  0  0  0  0  0  0  0  0  0  0
    3.3950   -3.5880    2.3100 H   0  0  0  0  0  0  0  0  0  0  0  0
    2.6130   -5.1190    1.8510 H   0  0  0  0  0  0  0  0  0  0  0  0
    0.0670   -4.5230    0.4020 H   0  0  0  0  0  0  0  0  0  0  0  0
   -0.1430   -2.7590    0.2950 H   0  0  0  0  0  0  0  0  0  0  0  0
    1.3040    4.3100    0.4410 H   0  0  0  0  0  0  0  0  0  0  0  0
   -2.6300   -1.7910    0.2740 H   0  0  0  0  0  0  0  0  0  0  0  0
   -4.0380   -0.7430   -0.0200 H   0  0  0  0  0  0  0  0  0  0  0  0
   -3.5370   -1.1130    1.6470 H   0  0  0  0  0  0  0  0  0  0  0  0
    3.3340    3.2450   -0.4120 H   0  0  0  0  0  0  0  0  0  0  0  0
    3.9120   -0.3080   -0.8530 H   0  0  0  0  0  0  0  0  0  0  0  0
    4.6310    1.3080   -0.6540 H   0  0  0  0  0  0  0  0  0  0  0  0
   -0.7170   -4.2500    2.6400 H   0  0  0  0  0  0  0  0  0  0  0  0
   -0.3170   -2.5160    2.6550 H   0  0  0  0  0  0  0  0  0  0  0  0
    1.6100   -2.9690    3.7520 H   0  0  0  0  0  0  0  0  0  0  0  0
    1.2110   -4.7030    3.7360 H   0  0  0  0  0  0  0  0  0  0  0  0
    3.1050    0.3300   -3.0960 H   0  0  0  0  0  0  0  0  0  0  0  0
    4.8720    0.4980   -2.9680 H   0  0  0  0  0  0  0  0  0  0  0  0
    3.8340    1.9420   -2.8970 H   0  0  0  0  0  0  0  0  0  0  0  0
  1  3  2  0  0  0  0
  1  4  1  0  0  0  0
  1  9  1  0  0  0  0
  2  3  1  0  0  0  0
  2  5  1  0  0  0  0
  2  7  1  0  0  0  0
  3 23  1  0  0  0  0
  4  5  2  0  0  0  0
  4 13  1  0  0  0  0
  5 11  1  0  0  0  0
  6  7  1  0  0  0  0
  6  8  1  0  0  0  0
  6 10  2  0  0  0  0
  7 24  1  0  0  0  0
  7 25  1  0  0  0  0
  8 14  1  0  0  0  0
  8 15  1  0  0  0  0
  9 12  2  0  0  0  0
  9 17  1  0  0  0  0
 11 18  2  0  0  0  0
 11 19  1  0  0  0  0
 13 16  2  0  0  0  0
 13 26  1  0  0  0  0
 14 21  1  0  0  0  0
 14 27  1  0  0  0  0
 14 28  1  0  0  0  0
 15 20  1  0  0  0  0
 15 29  1  0  0  0  0
 15 30  1  0  0  0  0
 16 18  1  0  0  0  0
 16 31  1  0  0  0  0
 17 32  1  0  0  0  0
 17 33  1  0  0  0  0
 17 34  1  0  0  0  0
 18 35  1  0  0  0  0
 19 22  1  0  0  0  0
 19 36  1  0  0  0  0
 19 37  1  0  0  0  0
 20 21  1  0  0  0  0
 20 38  1  0  0  0  0
 20 39  1  0  0  0  0
 21 40  1  0  0  0  0
 21 41  1  0  0  0  0
 22 42  1  0  0  0  0
 22 43  1  0  0  0  0
 22 44  1  0  0  0  0
M  END
>  <$CLUSTER>
146

>  <INDEX>
94762

$$$$
Chembridge 7964340
  MOE2020           3D

 54 55  0  0  0  0  0  0  0  0999 V2000
   -1.1730    3.6570   -0.5470 S   0  0  0  0  0  0  0  0  0  0  0  0
    0.2930    2.9190   -0.9300 N   0  0  0  0  0  0  0  0  0  0  0  0
   -1.9440    3.9420   -2.1370 C   0  0  0  0  0  0  0  0  0  0  0  0
    0.2900    1.5790   -1.5560 C   0  0  0  0  0  0  0  0  0  0  0  0
   -0.3120    0.5310   -0.6590 C   0  0  0  0  0  0  0  0  0  0  0  0
   -1.6900    5.1480   -2.7780 C   0  0  0  0  0  0  0  0  0  0  0  0
   -1.9650    2.6440    0.1680 O   0  0  0  0  0  0  0  0  0  0  0  0
   -0.8990    4.9190    0.0880 O   0  0  0  0  0  0  0  0  0  0  0  0
   -2.3000    5.3910   -4.0100 C   0  0  0  0  0  0  0  0  0  0  0  0
   -3.1420    4.4320   -4.5740 C   0  0  0  0  0  0  0  0  0  0  0  0
   -2.7720    2.9770   -2.6790 C   0  0  0  0  0  0  0  0  0  0  0  0
   -1.5270    0.3960   -0.5410 O   0  0  0  0  0  0  0  0  0  0  0  0
   -3.3780    3.2270   -3.9100 C   0  0  0  0  0  0  0  0  0  0  0  0
    0.6500   -0.2130    0.0020 N   0  0  0  0  0  0  0  0  0  0  0  0
   -0.8650   -3.9340    5.0830 C   0  0  0  0  0  0  0  0  0  0  0  0
   -0.2500   -1.8570    3.3110 C   0  0  0  0  0  0  0  0  0  0  0  0
   -3.7010    4.7640   -5.8020 O   0  0  0  0  0  0  0  0  0  0  0  0
    0.4610   -3.5560    4.8870 C   0  0  0  0  0  0  0  0  0  0  0  0
   -1.8840   -3.2830    4.3930 C   0  0  0  0  0  0  0  0  0  0  0  0
    0.7690   -2.5230    4.0010 C   0  0  0  0  0  0  0  0  0  0  0  0
   -1.5780   -2.2500    3.5060 C   0  0  0  0  0  0  0  0  0  0  0  0
    0.3200   -1.2800    0.9270 C   0  0  0  0  0  0  0  0  0  0  0  0
    1.2920    3.7770   -1.6250 C   0  0  0  0  0  0  0  0  0  0  0  0
   -1.0400   -4.9670    5.9790 O   0  0  0  0  0  0  0  0  0  0  0  0
   -2.0300    6.7040   -4.7130 C   0  0  0  0  0  0  0  0  0  0  0  0
    0.0860   -0.7480    2.3290 C   0  0  0  0  0  0  0  0  0  0  0  0
   -4.5650    3.8100   -6.4090 C   0  0  0  0  0  0  0  0  0  0  0  0
   -2.3760   -5.3950    6.2140 C   0  0  0  0  0  0  0  0  0  0  0  0
    1.3180    1.2970   -1.7850 H   0  0  0  0  0  0  0  0  0  0  0  0
   -0.2880    1.6250   -2.4790 H   0  0  0  0  0  0  0  0  0  0  0  0
   -1.0350    5.8820   -2.3330 H   0  0  0  0  0  0  0  0  0  0  0  0
   -2.9460    2.0470   -2.1590 H   0  0  0  0  0  0  0  0  0  0  0  0
   -4.0310    2.4870   -4.3500 H   0  0  0  0  0  0  0  0  0  0  0  0
    1.6240   -0.0040   -0.1670 H   0  0  0  0  0  0  0  0  0  0  0  0
    1.2510   -4.0630    5.4210 H   0  0  0  0  0  0  0  0  0  0  0  0
   -2.9120   -3.5780    4.5440 H   0  0  0  0  0  0  0  0  0  0  0  0
    1.7990   -2.2360    3.8470 H   0  0  0  0  0  0  0  0  0  0  0  0
   -2.3710   -1.7520    2.9680 H   0  0  0  0  0  0  0  0  0  0  0  0
    1.1430   -1.9940    0.9520 H   0  0  0  0  0  0  0  0  0  0  0  0
   -0.5850   -1.7800    0.5820 H   0  0  0  0  0  0  0  0  0  0  0  0
    1.3000    4.7670   -1.1690 H   0  0  0  0  0  0  0  0  0  0  0  0
    1.0260    3.8640   -2.6780 H   0  0  0  0  0  0  0  0  0  0  0  0
    2.2810    3.3280   -1.5360 H   0  0  0  0  0  0  0  0  0  0  0  0
   -1.3520    7.3070   -4.1090 H   0  0  0  0  0  0  0  0  0  0  0  0
   -2.9680    7.2420   -4.8520 H   0  0  0  0  0  0  0  0  0  0  0  0
   -1.5760    6.5090   -5.6850 H   0  0  0  0  0  0  0  0  0  0  0  0
    0.9890   -0.2400    2.6680 H   0  0  0  0  0  0  0  0  0  0  0  0
   -0.7410   -0.0390    2.3030 H   0  0  0  0  0  0  0  0  0  0  0  0
   -4.9270    4.2010   -7.3600 H   0  0  0  0  0  0  0  0  0  0  0  0
   -5.4110    3.6150   -5.7500 H   0  0  0  0  0  0  0  0  0  0  0  0
   -4.0180    2.8830   -6.5820 H   0  0  0  0  0  0  0  0  0  0  0  0
   -2.3740   -6.2110    6.9370 H   0  0  0  0  0  0  0  0  0  0  0  0
   -2.8170   -5.7390    5.2790 H   0  0  0  0  0  0  0  0  0  0  0  0
   -2.9600   -4.5630    6.6070 H   0  0  0  0  0  0  0  0  0  0  0  0
  1  2  1  0  0  0  0
  1  3  1  0  0  0  0
  1  7  2  0  0  0  0
  1  8  2  0  0  0  0
  2  4  1  0  0  0  0
  2 23  1  0  0  0  0
  3  6  1  0  0  0  0
  3 11  2  0  0  0  0
  4  5  1  0  0  0  0
  4 29  1  0  0  0  0
  4 30  1  0  0  0  0
  5 12  2  0  0  0  0
  5 14  1  0  0  0  0
  6  9  2  0  0  0  0
  6 31  1  0  0  0  0
  9 10  1  0  0  0  0
  9 25  1  0  0  0  0
 10 13  2  0  0  0  0
 10 17  1  0  0  0  0
 11 13  1  0  0  0  0
 11 32  1  0  0  0  0
 13 33  1  0  0  0  0
 14 22  1  0  0  0  0
 14 34  1  0  0  0  0
 15 18  2  0  0  0  0
 15 19  1  0  0  0  0
 15 24  1  0  0  0  0
 16 20  2  0  0  0  0
 16 21  1  0  0  0  0
 16 26  1  0  0  0  0
 17 27  1  0  0  0  0
 18 20  1  0  0  0  0
 18 35  1  0  0  0  0
 19 21  2  0  0  0  0
 19 36  1  0  0  0  0
 20 37  1  0  0  0  0
 21 38  1  0  0  0  0
 22 26  1  0  0  0  0
 22 39  1  0  0  0  0
 22 40  1  0  0  0  0
 23 41  1  0  0  0  0
 23 42  1  0  0  0  0
 23 43  1  0  0  0  0
 24 28  1  0  0  0  0
 25 44  1  0  0  0  0
 25 45  1  0  0  0  0
 25 46  1  0  0  0  0
 26 47  1  0  0  0  0
 26 48  1  0  0  0  0
 27 49  1  0  0  0  0
 27 50  1  0  0  0  0
 27 51  1  0  0  0  0
 28 52  1  0  0  0  0
 28 53  1  0  0  0  0
 28 54  1  0  0  0  0
M  END
>  <$CLUSTER>
147

>  <INDEX>
96189

$$$$
Bionet 8K-348S
  MOE2020           3D

 44 46  0  0  0  0  0  0  0  0999 V2000
    0.0220   -2.3380    0.3510 S   0  0  0  0  0  0  0  0  0  0  0  0
    0.1780   -0.7160    0.9060 N   0  0  0  0  0  0  0  0  0  0  0  0
   -0.2670   -0.4000    2.2960 C   0  0  0  0  0  0  0  0  0  0  0  0
    0.6350    0.6560    2.9160 C   0  0  0  0  0  0  0  0  0  0  0  0
    2.5970    0.7770    4.5090 C   0  0  0  0  0  0  0  0  0  0  0  0
    0.5450   -3.2340    1.3660 O   0  0  0  0  0  0  0  0  0  0  0  0
    0.4790   -2.4490   -1.0220 O   0  0  0  0  0  0  0  0  0  0  0  0
   -1.7470   -2.5390    0.3460 C   0  0  0  0  0  0  0  0  0  0  0  0
    1.5920    0.1660    3.7540 N   0  0  0  0  0  0  0  0  0  0  0  0
    2.7880    2.1620    4.5110 C   0  0  0  0  0  0  0  0  0  0  0  0
    3.4440   -0.0230    5.2920 C   0  0  0  0  0  0  0  0  0  0  0  0
    0.0390    0.3170   -0.0980 C   0  0  0  0  0  0  0  0  0  0  0  0
    4.4590    0.5500    6.0590 C   0  0  0  0  0  0  0  0  0  0  0  0
    3.8070    2.7330    5.2810 C   0  0  0  0  0  0  0  0  0  0  0  0
    4.6410    1.9290    6.0540 C   0  0  0  0  0  0  0  0  0  0  0  0
    0.5280    1.8640    2.6940 O   0  0  0  0  0  0  0  0  0  0  0  0
    4.0380    4.4220    5.2800 Cl  0  0  0  0  0  0  0  0  0  0  0  0
    5.4670   -0.4540    6.9950 Cl  0  0  0  0  0  0  0  0  0  0  0  0
   -2.4100   -3.0000    1.4930 C   0  0  0  0  0  0  0  0  0  0  0  0
   -2.4780   -2.2790   -0.8250 C   0  0  0  0  0  0  0  0  0  0  0  0
   -1.1890    0.9370   -0.3480 C   0  0  0  0  0  0  0  0  0  0  0  0
    1.1520    0.6390   -0.8840 C   0  0  0  0  0  0  0  0  0  0  0  0
   -3.8610   -2.4660   -0.8390 C   0  0  0  0  0  0  0  0  0  0  0  0
    1.0430    1.5980   -1.8910 C   0  0  0  0  0  0  0  0  0  0  0  0
   -1.2940    1.8960   -1.3570 C   0  0  0  0  0  0  0  0  0  0  0  0
   -3.7940   -3.1840    1.4720 C   0  0  0  0  0  0  0  0  0  0  0  0
   -0.1790    2.2280   -2.1250 C   0  0  0  0  0  0  0  0  0  0  0  0
   -4.5170   -2.9170    0.3080 C   0  0  0  0  0  0  0  0  0  0  0  0
   -0.2270   -1.3060    2.9000 H   0  0  0  0  0  0  0  0  0  0  0  0
   -1.2910   -0.0270    2.2690 H   0  0  0  0  0  0  0  0  0  0  0  0
    1.5710   -0.8390    3.8480 H   0  0  0  0  0  0  0  0  0  0  0  0
    2.1460    2.7940    3.9150 H   0  0  0  0  0  0  0  0  0  0  0  0
    3.3080   -1.0940    5.3010 H   0  0  0  0  0  0  0  0  0  0  0  0
    5.4260    2.3740    6.6470 H   0  0  0  0  0  0  0  0  0  0  0  0
   -1.8500   -3.2130    2.3920 H   0  0  0  0  0  0  0  0  0  0  0  0
   -1.9700   -1.9350   -1.7140 H   0  0  0  0  0  0  0  0  0  0  0  0
   -2.0560    0.6740    0.2390 H   0  0  0  0  0  0  0  0  0  0  0  0
    2.0960    0.1440   -0.7100 H   0  0  0  0  0  0  0  0  0  0  0  0
   -4.4240   -2.2620   -1.7380 H   0  0  0  0  0  0  0  0  0  0  0  0
    1.9050    1.8530   -2.4900 H   0  0  0  0  0  0  0  0  0  0  0  0
   -2.2410    2.3820   -1.5430 H   0  0  0  0  0  0  0  0  0  0  0  0
   -4.3050   -3.5330    2.3570 H   0  0  0  0  0  0  0  0  0  0  0  0
   -0.2620    2.9740   -2.9020 H   0  0  0  0  0  0  0  0  0  0  0  0
   -5.5870   -3.0600    0.2950 H   0  0  0  0  0  0  0  0  0  0  0  0
  1  2  1  0  0  0  0
  1  6  2  0  0  0  0
  1  7  2  0  0  0  0
  1  8  1  0  0  0  0
  2  3  1  0  0  0  0
  2 12  1  0  0  0  0
  3  4  1  0  0  0  0
  3 29  1  0  0  0  0
  3 30  1  0  0  0  0
  4  9  1  0  0  0  0
  4 16  2  0  0  0  0
  5  9  1  0  0  0  0
  5 10  1  0  0  0  0
  5 11  2  0  0  0  0
  8 19  1  0  0  0  0
  8 20  2  0  0  0  0
  9 31  1  0  0  0  0
 10 14  2  0  0  0  0
 10 32  1  0  0  0  0
 11 13  1  0  0  0  0
 11 33  1  0  0  0  0
 12 21  1  0  0  0  0
 12 22  2  0  0  0  0
 13 15  2  0  0  0  0
 13 18  1  0  0  0  0
 14 15  1  0  0  0  0
 14 17  1  0  0  0  0
 15 34  1  0  0  0  0
 19 26  2  0  0  0  0
 19 35  1  0  0  0  0
 20 23  1  0  0  0  0
 20 36  1  0  0  0  0
 21 25  2  0  0  0  0
 21 37  1  0  0  0  0
 22 24  1  0  0  0  0
 22 38  1  0  0  0  0
 23 28  2  0  0  0  0
 23 39  1  0  0  0  0
 24 27  2  0  0  0  0
 24 40  1  0  0  0  0
 25 27  1  0  0  0  0
 25 41  1  0  0  0  0
 26 28  1  0  0  0  0
 26 42  1  0  0  0  0
 27 43  1  0  0  0  0
 28 44  1  0  0  0  0
M  END
>  <$CLUSTER>
148

>  <INDEX>
106563

$$$$
Chembridge 7966080
  MOE2020           3D

 44 46  0  0  0  0  0  0  0  0999 V2000
    0.0330    2.6420   -0.7970 C   0  0  0  0  0  0  0  0  0  0  0  0
   -0.0580    1.3040   -0.6770 N   0  0  0  0  0  0  0  0  0  0  0  0
    1.3270    3.1830   -1.3520 C   0  0  0  0  0  0  0  0  0  0  0  0
   -0.8650    3.4290   -0.4840 O   0  0  0  0  0  0  0  0  0  0  0  0
    0.0500   -1.2900    0.6520 O   0  0  0  0  0  0  0  0  0  0  0  0
    1.2950    4.4300   -1.9830 C   0  0  0  0  0  0  0  0  0  0  0  0
    2.5190    2.4850   -1.2280 C   0  0  0  0  0  0  0  0  0  0  0  0
    5.5650    5.6400   -1.9300 O   0  0  0  0  0  0  0  0  0  0  0  0
    6.7410    6.2640   -2.2350 C   0  0  0  0  0  0  0  0  0  0  0  0
    3.6710    4.2650   -2.3960 C   0  0  0  0  0  0  0  0  0  0  0  0
    7.2990    7.0190   -1.1970 C   0  0  0  0  0  0  0  0  0  0  0  0
    4.9500    4.8590   -2.9420 C   0  0  0  0  0  0  0  0  0  0  0  0
    3.6940    3.0280   -1.7550 C   0  0  0  0  0  0  0  0  0  0  0  0
    2.4720    4.9660   -2.5080 C   0  0  0  0  0  0  0  0  0  0  0  0
    8.5010    7.7030   -1.3840 C   0  0  0  0  0  0  0  0  0  0  0  0
   -1.2610    0.6380   -0.1500 C   0  0  0  0  0  0  0  0  0  0  0  0
    0.9480    0.2850   -1.0190 C   0  0  0  0  0  0  0  0  0  0  0  0
    8.6050    6.8880   -3.6500 C   0  0  0  0  0  0  0  0  0  0  0  0
    1.2470   -0.6420    0.1700 C   0  0  0  0  0  0  0  0  0  0  0  0
   -0.9270   -0.2950    1.0250 C   0  0  0  0  0  0  0  0  0  0  0  0
    7.4010    6.2010   -3.4650 C   0  0  0  0  0  0  0  0  0  0  0  0
    9.1550    7.6380   -2.6120 C   0  0  0  0  0  0  0  0  0  0  0  0
    9.0870    8.5060   -0.2680 C   0  0  0  0  0  0  0  0  0  0  0  0
    0.3660    4.9750   -2.0640 H   0  0  0  0  0  0  0  0  0  0  0  0
    2.5390    1.5280   -0.7280 H   0  0  0  0  0  0  0  0  0  0  0  0
    6.7950    7.0730   -0.2430 H   0  0  0  0  0  0  0  0  0  0  0  0
    5.6240    4.0580   -3.2460 H   0  0  0  0  0  0  0  0  0  0  0  0
    4.7230    5.4890   -3.8020 H   0  0  0  0  0  0  0  0  0  0  0  0
    4.6240    2.4860   -1.6650 H   0  0  0  0  0  0  0  0  0  0  0  0
    2.4530    5.9260   -3.0020 H   0  0  0  0  0  0  0  0  0  0  0  0
   -1.7180    0.0520   -0.9470 H   0  0  0  0  0  0  0  0  0  0  0  0
   -1.9640    1.3980    0.1910 H   0  0  0  0  0  0  0  0  0  0  0  0
    1.8700    0.7850   -1.3170 H   0  0  0  0  0  0  0  0  0  0  0  0
    0.5750   -0.3150   -1.8490 H   0  0  0  0  0  0  0  0  0  0  0  0
    9.1110    6.8370   -4.6030 H   0  0  0  0  0  0  0  0  0  0  0  0
    1.9590   -1.4040   -0.1460 H   0  0  0  0  0  0  0  0  0  0  0  0
    1.6800   -0.0530    0.9780 H   0  0  0  0  0  0  0  0  0  0  0  0
   -0.5300    0.3000    1.8470 H   0  0  0  0  0  0  0  0  0  0  0  0
   -1.8390   -0.7980    1.3480 H   0  0  0  0  0  0  0  0  0  0  0  0
    6.9810    5.6210   -4.2740 H   0  0  0  0  0  0  0  0  0  0  0  0
   10.0850    8.1670   -2.7590 H   0  0  0  0  0  0  0  0  0  0  0  0
    8.4400    8.4380    0.6070 H   0  0  0  0  0  0  0  0  0  0  0  0
    9.1730    9.5480   -0.5760 H   0  0  0  0  0  0  0  0  0  0  0  0
   10.0750    8.1170   -0.0210 H   0  0  0  0  0  0  0  0  0  0  0  0
  1  2  1  0  0  0  0
  1  3  1  0  0  0  0
  1  4  2  0  0  0  0
  2 16  1  0  0  0  0
  2 17  1  0  0  0  0
  3  6  1  0  0  0  0
  3  7  2  0  0  0  0
  5 19  1  0  0  0  0
  5 20  1  0  0  0  0
  6 14  2  0  0  0  0
  6 24  1  0  0  0  0
  7 13  1  0  0  0  0
  7 25  1  0  0  0  0
  8  9  1  0  0  0  0
  8 12  1  0  0  0  0
  9 11  2  0  0  0  0
  9 21  1  0  0  0  0
 10 12  1  0  0  0  0
 10 13  2  0  0  0  0
 10 14  1  0  0  0  0
 11 15  1  0  0  0  0
 11 26  1  0  0  0  0
 12 27  1  0  0  0  0
 12 28  1  0  0  0  0
 13 29  1  0  0  0  0
 14 30  1  0  0  0  0
 15 22  2  0  0  0  0
 15 23  1  0  0  0  0
 16 20  1  0  0  0  0
 16 31  1  0  0  0  0
 16 32  1  0  0  0  0
 17 19  1  0  0  0  0
 17 33  1  0  0  0  0
 17 34  1  0  0  0  0
 18 21  2  0  0  0  0
 18 22  1  0  0  0  0
 18 35  1  0  0  0  0
 19 36  1  0  0  0  0
 19 37  1  0  0  0  0
 20 38  1  0  0  0  0
 20 39  1  0  0  0  0
 21 40  1  0  0  0  0
 22 41  1  0  0  0  0
 23 42  1  0  0  0  0
 23 43  1  0  0  0  0
 23 44  1  0  0  0  0
M  END
>  <$CLUSTER>
149

>  <INDEX>
96431

$$$$
Chembridge 7967115
  MOE2020           3D

 42 44  0  0  0  0  0  0  0  0999 V2000
    0.3620    0.6510   -0.0820 N   0  3  0  0  0  0  0  0  0  0  0  0
   -6.3220   -5.0840    4.2790 C   0  0  0  0  0  0  0  0  0  0  0  0
   -7.6040   -5.2260    3.7950 N   0  0  0  0  0  0  0  0  0  0  0  0
   -0.2920   -0.6470    0.0810 C   0  0  0  0  0  0  0  0  0  0  0  0
    1.6040    0.6970   -0.1070 O   0  5  0  0  0  0  0  0  0  0  0  0
   -5.2470   -4.8670    3.2760 C   0  0  0  0  0  0  0  0  0  0  0  0
   -0.3660    1.6520   -0.1880 O   0  0  0  0  0  0  0  0  0  0  0  0
   -6.0510   -5.1120    5.4770 O   0  0  0  0  0  0  0  0  0  0  0  0
   -2.1650   -4.2940    0.5360 O   0  0  0  0  0  0  0  0  0  0  0  0
   -1.7850   -0.6130    0.1000 C   0  0  0  0  0  0  0  0  0  0  0  0
    0.4780   -1.7400    0.1970 C   0  0  0  0  0  0  0  0  0  0  0  0
   -4.0910   -4.2020    3.6860 C   0  0  0  0  0  0  0  0  0  0  0  0
   -5.3590   -5.3300    1.9650 C   0  0  0  0  0  0  0  0  0  0  0  0
   -1.5950   -3.0460    0.4120 C   0  0  0  0  0  0  0  0  0  0  0  0
   -3.1730   -4.4360    1.4650 C   0  0  0  0  0  0  0  0  0  0  0  0
   -0.2010   -2.9870    0.3610 C   0  0  0  0  0  0  0  0  0  0  0  0
   -4.3200   -5.1220    1.0590 C   0  0  0  0  0  0  0  0  0  0  0  0
   -3.0470   -3.9900    2.7840 C   0  0  0  0  0  0  0  0  0  0  0  0
   -2.3560   -1.8820    0.2650 C   0  0  0  0  0  0  0  0  0  0  0  0
   -8.7280   -5.4410    4.7120 C   0  0  0  0  0  0  0  0  0  0  0  0
   -7.9880   -5.1960    2.3730 C   0  0  0  0  0  0  0  0  0  0  0  0
   -8.6940   -6.5010    1.9910 C   0  0  0  0  0  0  0  0  0  0  0  0
   -9.4480   -6.7510    4.3710 C   0  0  0  0  0  0  0  0  0  0  0  0
   -9.8730   -6.8090    2.9070 C   0  0  0  0  0  0  0  0  0  0  0  0
   -2.3630    0.2930   -0.0030 H   0  0  0  0  0  0  0  0  0  0  0  0
    1.5560   -1.6800    0.1680 H   0  0  0  0  0  0  0  0  0  0  0  0
   -4.0040   -3.8510    4.7030 H   0  0  0  0  0  0  0  0  0  0  0  0
   -6.2520   -5.8500    1.6510 H   0  0  0  0  0  0  0  0  0  0  0  0
    0.3730   -3.8980    0.4470 H   0  0  0  0  0  0  0  0  0  0  0  0
   -4.4020   -5.4900    0.0470 H   0  0  0  0  0  0  0  0  0  0  0  0
   -2.1470   -3.4850    3.1030 H   0  0  0  0  0  0  0  0  0  0  0  0
   -3.4330   -1.9650    0.2790 H   0  0  0  0  0  0  0  0  0  0  0  0
   -9.4290   -4.6110    4.6230 H   0  0  0  0  0  0  0  0  0  0  0  0
   -8.3540   -5.4920    5.7340 H   0  0  0  0  0  0  0  0  0  0  0  0
   -7.0940   -5.0770    1.7610 H   0  0  0  0  0  0  0  0  0  0  0  0
   -8.6620   -4.3570    2.1990 H   0  0  0  0  0  0  0  0  0  0  0  0
   -7.9770   -7.3190    2.0550 H   0  0  0  0  0  0  0  0  0  0  0  0
   -9.0580   -6.4160    0.9670 H   0  0  0  0  0  0  0  0  0  0  0  0
  -10.3350   -6.8380    4.9980 H   0  0  0  0  0  0  0  0  0  0  0  0
   -8.7760   -7.5850    4.5750 H   0  0  0  0  0  0  0  0  0  0  0  0
  -10.2490   -7.8070    2.6830 H   0  0  0  0  0  0  0  0  0  0  0  0
  -10.6610   -6.0760    2.7340 H   0  0  0  0  0  0  0  0  0  0  0  0
  1  4  1  0  0  0  0
  1  5  1  0  0  0  0
  1  7  2  0  0  0  0
  2  3  1  0  0  0  0
  2  6  1  0  0  0  0
  2  8  2  0  0  0  0
  3 20  1  0  0  0  0
  3 21  1  0  0  0  0
  4 10  1  0  0  0  0
  4 11  2  0  0  0  0
  6 12  1  0  0  0  0
  6 13  2  0  0  0  0
  9 14  1  0  0  0  0
  9 15  1  0  0  0  0
 10 19  2  0  0  0  0
 10 25  1  0  0  0  0
 11 16  1  0  0  0  0
 11 26  1  0  0  0  0
 12 18  2  0  0  0  0
 12 27  1  0  0  0  0
 13 17  1  0  0  0  0
 13 28  1  0  0  0  0
 14 16  2  0  0  0  0
 14 19  1  0  0  0  0
 15 17  2  0  0  0  0
 15 18  1  0  0  0  0
 16 29  1  0  0  0  0
 17 30  1  0  0  0  0
 18 31  1  0  0  0  0
 19 32  1  0  0  0  0
 20 23  1  0  0  0  0
 20 33  1  0  0  0  0
 20 34  1  0  0  0  0
 21 22  1  0  0  0  0
 21 35  1  0  0  0  0
 21 36  1  0  0  0  0
 22 24  1  0  0  0  0
 22 37  1  0  0  0  0
 22 38  1  0  0  0  0
 23 24  1  0  0  0  0
 23 39  1  0  0  0  0
 23 40  1  0  0  0  0
 24 41  1  0  0  0  0
 24 42  1  0  0  0  0
M  CHG  1   1   1
M  CHG  1   5  -1
M  END
>  <$CLUSTER>
150

>  <INDEX>
96625

$$$$
Chembridge 7973306
  MOE2020           3D

 46 47  0  0  0  0  0  0  0  0999 V2000
   -1.7270   -0.1590    0.3230 S   0  0  0  0  0  0  0  0  0  0  0  0
   -2.1450    1.4000    0.7670 N   0  0  0  0  0  0  0  0  0  0  0  0
   -1.6360    1.9140    2.0670 C   0  0  0  0  0  0  0  0  0  0  0  0
   -2.0770    1.1380    3.2750 C   0  0  0  0  0  0  0  0  0  0  0  0
    0.0040   -0.0300   -0.0060 C   0  0  0  0  0  0  0  0  0  0  0  0
   -3.1480    1.6590    3.9270 N   0  0  0  0  0  0  0  0  0  0  0  0
   -2.4130   -0.4580   -0.9230 O   0  0  0  0  0  0  0  0  0  0  0  0
   -1.9210   -1.0130    1.4810 O   0  0  0  0  0  0  0  0  0  0  0  0
   -3.8700    1.2610    5.0690 C   0  0  0  0  0  0  0  0  0  0  0  0
   -1.5750    0.0580    3.5990 O   0  0  0  0  0  0  0  0  0  0  0  0
   -4.9430    2.0450    5.5570 C   0  0  0  0  0  0  0  0  0  0  0  0
    0.4420    0.2930   -1.2940 C   0  0  0  0  0  0  0  0  0  0  0  0
    0.9250   -0.2930    1.0120 C   0  0  0  0  0  0  0  0  0  0  0  0
    2.2920   -0.2180    0.7410 C   0  0  0  0  0  0  0  0  0  0  0  0
    1.8110    0.3660   -1.5580 C   0  0  0  0  0  0  0  0  0  0  0  0
    2.7330    0.1110   -0.5420 C   0  0  0  0  0  0  0  0  0  0  0  0
   -2.1190    2.4550   -0.2810 C   0  0  0  0  0  0  0  0  0  0  0  0
   -3.5420    0.0740    5.7390 C   0  0  0  0  0  0  0  0  0  0  0  0
   -5.3630    3.3340    4.8990 C   0  0  0  0  0  0  0  0  0  0  0  0
   -5.6510    1.6180    6.6940 C   0  0  0  0  0  0  0  0  0  0  0  0
    4.1980    0.1920   -0.8310 C   0  0  0  0  0  0  0  0  0  0  0  0
   -1.7860    2.3630   -1.6670 C   0  0  0  0  0  0  0  0  0  0  0  0
   -4.2580   -0.3340    6.8690 C   0  0  0  0  0  0  0  0  0  0  0  0
   -5.3110    0.4370    7.3460 C   0  0  0  0  0  0  0  0  0  0  0  0
   -1.9800    2.9420    2.1820 H   0  0  0  0  0  0  0  0  0  0  0  0
   -0.5470    1.8970    2.0340 H   0  0  0  0  0  0  0  0  0  0  0  0
   -3.5000    2.5070    3.5060 H   0  0  0  0  0  0  0  0  0  0  0  0
   -0.2740    0.4850   -2.0790 H   0  0  0  0  0  0  0  0  0  0  0  0
    0.5810   -0.5530    2.0020 H   0  0  0  0  0  0  0  0  0  0  0  0
    3.0090   -0.4150    1.5240 H   0  0  0  0  0  0  0  0  0  0  0  0
    2.1570    0.6200   -2.5490 H   0  0  0  0  0  0  0  0  0  0  0  0
   -1.4280    3.2020    0.1100 H   0  0  0  0  0  0  0  0  0  0  0  0
   -3.1310    2.8600   -0.2770 H   0  0  0  0  0  0  0  0  0  0  0  0
   -2.7250   -0.5340    5.3780 H   0  0  0  0  0  0  0  0  0  0  0  0
   -4.7230    3.5280    4.0380 H   0  0  0  0  0  0  0  0  0  0  0  0
   -5.2700    4.1530    5.6120 H   0  0  0  0  0  0  0  0  0  0  0  0
   -6.3990    3.2540    4.5710 H   0  0  0  0  0  0  0  0  0  0  0  0
   -6.4700    2.2150    7.0670 H   0  0  0  0  0  0  0  0  0  0  0  0
    4.7600   -0.0370    0.0740 H   0  0  0  0  0  0  0  0  0  0  0  0
    4.4470    1.1980   -1.1690 H   0  0  0  0  0  0  0  0  0  0  0  0
    4.4550   -0.5260   -1.6090 H   0  0  0  0  0  0  0  0  0  0  0  0
   -0.7780    1.9630   -1.7730 H   0  0  0  0  0  0  0  0  0  0  0  0
   -1.8330    3.3540   -2.1190 H   0  0  0  0  0  0  0  0  0  0  0  0
   -2.4930    1.7020   -2.1680 H   0  0  0  0  0  0  0  0  0  0  0  0
   -3.9920   -1.2510    7.3730 H   0  0  0  0  0  0  0  0  0  0  0  0
   -5.8630    0.1210    8.2190 H   0  0  0  0  0  0  0  0  0  0  0  0
  1  2  1  0  0  0  0
  1  5  1  0  0  0  0
  1  7  2  0  0  0  0
  1  8  2  0  0  0  0
  2  3  1  0  0  0  0
  2 17  1  0  0  0  0
  3  4  1  0  0  0  0
  3 25  1  0  0  0  0
  3 26  1  0  0  0  0
  4  6  1  0  0  0  0
  4 10  2  0  0  0  0
  5 12  1  0  0  0  0
  5 13  2  0  0  0  0
  6  9  1  0  0  0  0
  6 27  1  0  0  0  0
  9 11  2  0  0  0  0
  9 18  1  0  0  0  0
 11 19  1  0  0  0  0
 11 20  1  0  0  0  0
 12 15  2  0  0  0  0
 12 28  1  0  0  0  0
 13 14  1  0  0  0  0
 13 29  1  0  0  0  0
 14 16  2  0  0  0  0
 14 30  1  0  0  0  0
 15 16  1  0  0  0  0
 15 31  1  0  0  0  0
 16 21  1  0  0  0  0
 17 22  1  0  0  0  0
 17 32  1  0  0  0  0
 17 33  1  0  0  0  0
 18 23  2  0  0  0  0
 18 34  1  0  0  0  0
 19 35  1  0  0  0  0
 19 36  1  0  0  0  0
 19 37  1  0  0  0  0
 20 24  2  0  0  0  0
 20 38  1  0  0  0  0
 21 39  1  0  0  0  0
 21 40  1  0  0  0  0
 21 41  1  0  0  0  0
 22 42  1  0  0  0  0
 22 43  1  0  0  0  0
 22 44  1  0  0  0  0
 23 24  1  0  0  0  0
 23 45  1  0  0  0  0
 24 46  1  0  0  0  0
M  END
>  <$CLUSTER>
151

>  <INDEX>
97676

$$$$
Comgenex CGX-3121964
  MOE2020           3D

 51 53  0  0  0  0  0  0  0  0999 V2000
    4.7560   -0.6530   -0.1260 S   0  0  0  0  0  0  0  0  0  0  0  0
    3.6610   -1.0290   -1.3480 N   0  0  0  0  0  0  0  0  0  0  0  0
   -0.5470    0.0710   -0.0220 C   0  0  0  0  0  0  0  0  0  0  0  0
    5.8330    0.5690   -0.8670 C   0  0  0  0  0  0  0  0  0  0  0  0
   -1.7080   -0.5710   -0.2250 N   0  0  0  0  0  0  0  0  0  0  0  0
   -0.6390    0.9190    1.1100 C   0  0  0  0  0  0  0  0  0  0  0  0
    2.7200    0.0140   -1.8260 C   0  0  0  0  0  0  0  0  0  0  0  0
    1.7740    0.4690   -0.7440 C   0  0  0  0  0  0  0  0  0  0  0  0
    0.5360   -0.1400   -0.8650 N   0  0  0  0  0  0  0  0  0  0  0  0
   -2.5630   -0.1430    0.7750 O   0  0  0  0  0  0  0  0  0  0  0  0
   -1.9180    0.7450    1.5670 C   0  0  0  0  0  0  0  0  0  0  0  0
    3.9780    0.0060    0.9330 O   0  0  0  0  0  0  0  0  0  0  0  0
    5.5150   -1.8360    0.1860 O   0  0  0  0  0  0  0  0  0  0  0  0
    6.9700    0.1220   -1.5280 C   0  0  0  0  0  0  0  0  0  0  0  0
    7.8280    1.0660   -2.0940 C   0  0  0  0  0  0  0  0  0  0  0  0
    5.5210    1.9110   -0.7570 C   0  0  0  0  0  0  0  0  0  0  0  0
    2.1250    1.2820    0.1060 O   0  0  0  0  0  0  0  0  0  0  0  0
    7.5340    2.4270   -1.9920 C   0  0  0  0  0  0  0  0  0  0  0  0
    6.3830    2.8490   -1.3250 C   0  0  0  0  0  0  0  0  0  0  0  0
    4.2140   -1.7540   -2.5230 C   0  0  0  0  0  0  0  0  0  0  0  0
   -2.5530    1.3450    2.6700 C   0  0  0  0  0  0  0  0  0  0  0  0
    9.0000    0.6540   -2.7740 C   0  0  0  0  0  0  0  0  0  0  0  0
    8.4170    3.3780   -2.5750 C   0  0  0  0  0  0  0  0  0  0  0  0
    4.7750   -3.1340   -2.2050 C   0  0  0  0  0  0  0  0  0  0  0  0
    5.3280   -3.8210   -3.4010 C   0  0  0  0  0  0  0  0  0  0  0  0
    5.8880   -5.2020   -3.0770 C   0  0  0  0  0  0  0  0  0  0  0  0
    9.8580    1.5960   -3.3410 C   0  0  0  0  0  0  0  0  0  0  0  0
    9.5670    2.9550   -3.2420 C   0  0  0  0  0  0  0  0  0  0  0  0
    0.1280    1.5590    1.5200 H   0  0  0  0  0  0  0  0  0  0  0  0
    2.1380   -0.3920   -2.6530 H   0  0  0  0  0  0  0  0  0  0  0  0
    3.2950    0.8730   -2.1730 H   0  0  0  0  0  0  0  0  0  0  0  0
    0.4110   -0.7900   -1.6280 H   0  0  0  0  0  0  0  0  0  0  0  0
    7.1850   -0.9340   -1.6020 H   0  0  0  0  0  0  0  0  0  0  0  0
    4.6270    2.2270   -0.2410 H   0  0  0  0  0  0  0  0  0  0  0  0
    6.1600    3.9030   -1.2490 H   0  0  0  0  0  0  0  0  0  0  0  0
    5.0150   -1.1500   -2.9500 H   0  0  0  0  0  0  0  0  0  0  0  0
    3.4170   -1.8710   -3.2570 H   0  0  0  0  0  0  0  0  0  0  0  0
   -1.8570    2.0220    3.1660 H   0  0  0  0  0  0  0  0  0  0  0  0
   -2.8700    0.5730    3.3710 H   0  0  0  0  0  0  0  0  0  0  0  0
   -3.4230    1.9050    2.3280 H   0  0  0  0  0  0  0  0  0  0  0  0
    9.2310   -0.3980   -2.8540 H   0  0  0  0  0  0  0  0  0  0  0  0
    8.1960    4.4330   -2.5010 H   0  0  0  0  0  0  0  0  0  0  0  0
    3.9760   -3.7480   -1.7900 H   0  0  0  0  0  0  0  0  0  0  0  0
    5.5700   -3.0250   -1.4670 H   0  0  0  0  0  0  0  0  0  0  0  0
    6.1280   -3.2090   -3.8170 H   0  0  0  0  0  0  0  0  0  0  0  0
    4.5340   -3.9310   -4.1390 H   0  0  0  0  0  0  0  0  0  0  0  0
    6.6850   -5.1070   -2.3390 H   0  0  0  0  0  0  0  0  0  0  0  0
    6.2860   -5.6550   -3.9850 H   0  0  0  0  0  0  0  0  0  0  0  0
    5.0940   -5.8310   -2.6750 H   0  0  0  0  0  0  0  0  0  0  0  0
   10.7490    1.2720   -3.8580 H   0  0  0  0  0  0  0  0  0  0  0  0
   10.2330    3.6820   -3.6820 H   0  0  0  0  0  0  0  0  0  0  0  0
  1  2  1  0  0  0  0
  1  4  1  0  0  0  0
  1 12  2  0  0  0  0
  1 13  2  0  0  0  0
  2  7  1  0  0  0  0
  2 20  1  0  0  0  0
  3  5  2  0  0  0  0
  3  6  1  0  0  0  0
  3  9  1  0  0  0  0
  4 14  2  0  0  0  0
  4 16  1  0  0  0  0
  5 10  1  0  0  0  0
  6 11  2  0  0  0  0
  6 29  1  0  0  0  0
  7  8  1  0  0  0  0
  7 30  1  0  0  0  0
  7 31  1  0  0  0  0
  8  9  1  0  0  0  0
  8 17  2  0  0  0  0
  9 32  1  0  0  0  0
 10 11  1  0  0  0  0
 11 21  1  0  0  0  0
 14 15  1  0  0  0  0
 14 33  1  0  0  0  0
 15 18  2  0  0  0  0
 15 22  1  0  0  0  0
 16 19  2  0  0  0  0
 16 34  1  0  0  0  0
 18 19  1  0  0  0  0
 18 23  1  0  0  0  0
 19 35  1  0  0  0  0
 20 24  1  0  0  0  0
 20 36  1  0  0  0  0
 20 37  1  0  0  0  0
 21 38  1  0  0  0  0
 21 39  1  0  0  0  0
 21 40  1  0  0  0  0
 22 27  2  0  0  0  0
 22 41  1  0  0  0  0
 23 28  2  0  0  0  0
 23 42  1  0  0  0  0
 24 25  1  0  0  0  0
 24 43  1  0  0  0  0
 24 44  1  0  0  0  0
 25 26  1  0  0  0  0
 25 45  1  0  0  0  0
 25 46  1  0  0  0  0
 26 47  1  0  0  0  0
 26 48  1  0  0  0  0
 26 49  1  0  0  0  0
 27 28  1  0  0  0  0
 27 50  1  0  0  0  0
 28 51  1  0  0  0  0
M  END
>  <$CLUSTER>
152

>  <INDEX>
259572

$$$$
Chemical Block A3537/0149853
  MOE2020           3D

 54 57  0  0  1  0  0  0  0  0999 V2000
   -0.1260    0.0300   -0.1610 N   0  0  0  0  0  0  0  0  0  0  0  0
    1.1250   -0.5880   -0.1150 C   0  0  0  0  0  0  0  0  0  0  0  0
   -1.0200   -0.6340    0.6680 C   0  0  0  0  0  0  0  0  0  0  0  0
    1.0160   -1.6700    0.7710 N   0  0  0  0  0  0  0  0  0  0  0  0
   -0.3000   -1.7860    1.3540 C   0  0  3  0  0  0  0  0  0  0  0  0
   -0.3530   -1.6750    2.8790 C   0  0  0  0  0  0  0  0  0  0  0  0
    2.9990   -4.9220    0.6570 C   0  0  0  0  0  0  0  0  0  0  0  0
    0.2920   -0.4170    3.4470 C   0  0  0  0  0  0  0  0  0  0  0  0
    2.0930   -2.6110    1.0600 C   0  0  0  0  0  0  0  0  0  0  0  0
    3.0750   -5.8320    1.6960 C   0  0  0  0  0  0  0  0  0  0  0  0
    4.3770   -4.9720   -0.3590 S   0  0  0  0  0  0  0  0  0  0  0  0
    2.1580   -0.2720   -0.6930 O   0  0  0  0  0  0  0  0  0  0  0  0
   -0.4430    1.1810   -0.9510 C   0  0  0  0  0  0  0  0  0  0  0  0
    1.8900   -3.9390    0.3510 C   0  0  0  0  0  0  0  0  0  0  0  0
   -2.2120   -0.4180    0.8570 O   0  0  0  0  0  0  0  0  0  0  0  0
    5.0930   -6.2090    0.5710 C   0  0  0  0  0  0  0  0  0  0  0  0
    0.2270   -0.3490    4.7980 N   0  0  0  0  0  0  0  0  0  0  0  0
    4.2990   -6.5760    1.6340 C   0  0  0  0  0  0  0  0  0  0  0  0
    0.8120    0.4330    2.7200 O   0  0  0  0  0  0  0  0  0  0  0  0
    0.6980    0.6380    5.6930 C   0  0  0  0  0  0  0  0  0  0  0  0
    2.0340   -6.0330    2.7470 C   0  0  0  0  0  0  0  0  0  0  0  0
   -1.5550    1.9890   -0.6530 C   0  0  0  0  0  0  0  0  0  0  0  0
    0.3430    1.5530   -2.0550 C   0  0  0  0  0  0  0  0  0  0  0  0
    1.3610    1.7920    5.2660 C   0  0  0  0  0  0  0  0  0  0  0  0
    0.4900    0.4470    7.0670 C   0  0  0  0  0  0  0  0  0  0  0  0
    0.0310    2.6790   -2.8260 C   0  0  0  0  0  0  0  0  0  0  0  0
   -1.8660    3.1160   -1.4230 C   0  0  0  0  0  0  0  0  0  0  0  0
    0.9350    1.3900    7.9940 C   0  0  0  0  0  0  0  0  0  0  0  0
    1.8070    2.7360    6.1980 C   0  0  0  0  0  0  0  0  0  0  0  0
    1.5940    2.5370    7.5600 C   0  0  0  0  0  0  0  0  0  0  0  0
   -1.0730    3.4610   -2.5100 C   0  0  0  0  0  0  0  0  0  0  0  0
   -0.7380   -2.7720    1.2000 H   0  0  0  0  0  0  0  0  0  0  0  0
    0.1590   -2.5400    3.3010 H   0  0  0  0  0  0  0  0  0  0  0  0
   -1.3990   -1.6880    3.1850 H   0  0  0  0  0  0  0  0  0  0  0  0
    2.1280   -2.7870    2.1350 H   0  0  0  0  0  0  0  0  0  0  0  0
    3.0380   -2.1770    0.7320 H   0  0  0  0  0  0  0  0  0  0  0  0
    0.9410   -4.3680    0.6730 H   0  0  0  0  0  0  0  0  0  0  0  0
    1.8630   -3.7630   -0.7240 H   0  0  0  0  0  0  0  0  0  0  0  0
    6.0540   -6.6510    0.3520 H   0  0  0  0  0  0  0  0  0  0  0  0
   -0.2340   -1.1320    5.2380 H   0  0  0  0  0  0  0  0  0  0  0  0
    4.5690   -7.3420    2.3450 H   0  0  0  0  0  0  0  0  0  0  0  0
    1.2040   -5.3480    2.5720 H   0  0  0  0  0  0  0  0  0  0  0  0
    2.4660   -5.8380    3.7280 H   0  0  0  0  0  0  0  0  0  0  0  0
    1.6710   -7.0600    2.7070 H   0  0  0  0  0  0  0  0  0  0  0  0
   -2.1830    1.7340    0.1880 H   0  0  0  0  0  0  0  0  0  0  0  0
    1.2060    0.9580   -2.3140 H   0  0  0  0  0  0  0  0  0  0  0  0
    1.5300    1.9560    4.2120 H   0  0  0  0  0  0  0  0  0  0  0  0
   -0.0210   -0.4400    7.4110 H   0  0  0  0  0  0  0  0  0  0  0  0
    0.6510    2.9410   -3.6700 H   0  0  0  0  0  0  0  0  0  0  0  0
   -2.7260    3.7190   -1.1710 H   0  0  0  0  0  0  0  0  0  0  0  0
    0.7680    1.2300    9.0490 H   0  0  0  0  0  0  0  0  0  0  0  0
    2.3190    3.6240    5.8590 H   0  0  0  0  0  0  0  0  0  0  0  0
    1.9380    3.2690    8.2760 H   0  0  0  0  0  0  0  0  0  0  0  0
   -1.3130    4.3300   -3.1050 H   0  0  0  0  0  0  0  0  0  0  0  0
  1  2  1  0  0  0  0
  1  3  1  0  0  0  0
  1 13  1  0  0  0  0
  2  4  1  0  0  0  0
  2 12  2  0  0  0  0
  3  5  1  0  0  0  0
  3 15  2  0  0  0  0
  4  5  1  0  0  0  0
  4  9  1  0  0  0  0
  5  6  1  0  0  0  0
  5 32  1  0  0  0  0
  6  8  1  0  0  0  0
  6 33  1  0  0  0  0
  6 34  1  0  0  0  0
  7 10  2  0  0  0  0
  7 11  1  0  0  0  0
  7 14  1  0  0  0  0
  8 17  1  0  0  0  0
  8 19  2  0  0  0  0
  9 14  1  0  0  0  0
  9 35  1  0  0  0  0
  9 36  1  0  0  0  0
 10 18  1  0  0  0  0
 10 21  1  0  0  0  0
 11 16  1  0  0  0  0
 13 22  1  0  0  0  0
 13 23  2  0  0  0  0
 14 37  1  0  0  0  0
 14 38  1  0  0  0  0
 16 18  2  0  0  0  0
 16 39  1  0  0  0  0
 17 20  1  0  0  0  0
 17 40  1  0  0  0  0
 18 41  1  0  0  0  0
 20 24  1  0  0  0  0
 20 25  2  0  0  0  0
 21 42  1  0  0  0  0
 21 43  1  0  0  0  0
 21 44  1  0  0  0  0
 22 27  2  0  0  0  0
 22 45  1  0  0  0  0
 23 26  1  0  0  0  0
 23 46  1  0  0  0  0
 24 29  2  0  0  0  0
 24 47  1  0  0  0  0
 25 28  1  0  0  0  0
 25 48  1  0  0  0  0
 26 31  2  0  0  0  0
 26 49  1  0  0  0  0
 27 31  1  0  0  0  0
 27 50  1  0  0  0  0
 28 30  2  0  0  0  0
 28 51  1  0  0  0  0
 29 30  1  0  0  0  0
 29 52  1  0  0  0  0
 30 53  1  0  0  0  0
 31 54  1  0  0  0  0
M  END
>  <$CLUSTER>
153

>  <INDEX>
116064

$$$$
Chembridge 7979449
  MOE2020           3D

 39 41  0  0  1  0  0  0  0  0999 V2000
    0.4530   -0.4390   -0.1640 N   0  0  0  0  0  0  0  0  0  0  0  0
    5.0410    2.3220   -3.5440 C   0  0  0  0  0  0  0  0  0  0  0  0
    4.5240    1.6400   -4.7150 N   0  3  0  0  0  0  0  0  0  0  0  0
    1.1190   -1.1300    0.8420 C   0  0  0  0  0  0  0  0  0  0  0  0
    2.5670   -0.9920   -1.0430 C   0  0  3  0  0  0  0  0  0  0  0  0
    3.4960    0.2040   -0.8120 C   0  0  0  0  0  0  0  0  0  0  0  0
    1.1610   -0.5540   -1.4230 C   0  0  0  0  0  0  0  0  0  0  0  0
    4.7150    1.8930   -2.2420 C   0  0  0  0  0  0  0  0  0  0  0  0
    3.8770    0.7670   -1.9990 N   0  0  0  0  0  0  0  0  0  0  0  0
    2.3390   -1.7810    0.2360 C   0  0  0  0  0  0  0  0  0  0  0  0
    5.8830    3.4200   -3.7830 C   0  0  0  0  0  0  0  0  0  0  0  0
    3.2930    1.5100   -4.8160 O   0  5  0  0  0  0  0  0  0  0  0  0
    5.3480    1.2500   -5.5600 O   0  0  0  0  0  0  0  0  0  0  0  0
   -0.7670    0.2770   -0.0440 C   0  0  0  0  0  0  0  0  0  0  0  0
    0.8100   -1.2840    2.0180 O   0  0  0  0  0  0  0  0  0  0  0  0
    3.8360    0.5910    0.2850 O   0  0  0  0  0  0  0  0  0  0  0  0
    5.2670    2.6250   -1.1800 C   0  0  0  0  0  0  0  0  0  0  0  0
    6.4120    4.1220   -2.7060 C   0  0  0  0  0  0  0  0  0  0  0  0
    6.1030    3.7240   -1.4090 C   0  0  0  0  0  0  0  0  0  0  0  0
    7.4300    5.4550   -2.9860 Cl  0  0  0  0  0  0  0  0  0  0  0  0
   -1.3680    0.5150    1.2010 C   0  0  0  0  0  0  0  0  0  0  0  0
   -1.4200    0.7730   -1.1870 C   0  0  0  0  0  0  0  0  0  0  0  0
   -2.6220    1.4800   -1.0870 C   0  0  0  0  0  0  0  0  0  0  0  0
   -2.5700    1.2230    1.3030 C   0  0  0  0  0  0  0  0  0  0  0  0
   -3.1970    1.7070    0.1590 C   0  0  0  0  0  0  0  0  0  0  0  0
    3.0600   -1.5710   -1.8240 H   0  0  0  0  0  0  0  0  0  0  0  0
    1.1850    0.4060   -1.9390 H   0  0  0  0  0  0  0  0  0  0  0  0
    0.6870   -1.2990   -2.0630 H   0  0  0  0  0  0  0  0  0  0  0  0
    3.5100    0.3180   -2.8260 H   0  0  0  0  0  0  0  0  0  0  0  0
    2.1510   -2.8320    0.0170 H   0  0  0  0  0  0  0  0  0  0  0  0
    3.1970   -1.6970    0.9030 H   0  0  0  0  0  0  0  0  0  0  0  0
    6.1180    3.7170   -4.7950 H   0  0  0  0  0  0  0  0  0  0  0  0
    5.0420    2.3340   -0.1640 H   0  0  0  0  0  0  0  0  0  0  0  0
    6.5120    4.2680   -0.5710 H   0  0  0  0  0  0  0  0  0  0  0  0
   -0.8940    0.1450    2.0980 H   0  0  0  0  0  0  0  0  0  0  0  0
   -0.9840    0.6040   -2.1610 H   0  0  0  0  0  0  0  0  0  0  0  0
   -3.1050    1.8510   -1.9790 H   0  0  0  0  0  0  0  0  0  0  0  0
   -3.0130    1.3950    2.2730 H   0  0  0  0  0  0  0  0  0  0  0  0
   -4.1240    2.2550    0.2380 H   0  0  0  0  0  0  0  0  0  0  0  0
  1  4  1  0  0  0  0
  1  7  1  0  0  0  0
  1 14  1  0  0  0  0
  2  3  1  0  0  0  0
  2  8  2  0  0  0  0
  2 11  1  0  0  0  0
  3 12  1  0  0  0  0
  3 13  2  0  0  0  0
  4 10  1  0  0  0  0
  4 15  2  0  0  0  0
  5  6  1  0  0  0  0
  5  7  1  0  0  0  0
  5 10  1  0  0  0  0
  5 26  1  0  0  0  0
  6  9  1  0  0  0  0
  6 16  2  0  0  0  0
  7 27  1  0  0  0  0
  7 28  1  0  0  0  0
  8  9  1  0  0  0  0
  8 17  1  0  0  0  0
  9 29  1  0  0  0  0
 10 30  1  0  0  0  0
 10 31  1  0  0  0  0
 11 18  2  0  0  0  0
 11 32  1  0  0  0  0
 14 21  1  0  0  0  0
 14 22  2  0  0  0  0
 17 19  2  0  0  0  0
 17 33  1  0  0  0  0
 18 19  1  0  0  0  0
 18 20  1  0  0  0  0
 19 34  1  0  0  0  0
 21 24  2  0  0  0  0
 21 35  1  0  0  0  0
 22 23  1  0  0  0  0
 22 36  1  0  0  0  0
 23 25  2  0  0  0  0
 23 37  1  0  0  0  0
 24 25  1  0  0  0  0
 24 38  1  0  0  0  0
 25 39  1  0  0  0  0
M  CHG  1   3   1
M  CHG  1  12  -1
M  END
>  <$CLUSTER>
154

>  <INDEX>
98396

$$$$
Chembridge 6368284
  MOE2020           3D

 47 49  0  0  0  0  0  0  0  0999 V2000
    6.0510   -1.1940   -2.5410 N   0  0  0  0  0  0  0  0  0  0  0  0
    5.2820   -0.8450   -1.4730 C   0  0  0  0  0  0  0  0  0  0  0  0
    5.6050   -1.5630   -3.9050 C   0  0  0  0  0  0  0  0  0  0  0  0
   -2.2200    0.1030    0.3940 C   0  0  0  0  0  0  0  0  0  0  0  0
   -0.9220    0.1730    0.8820 N   0  0  0  0  0  0  0  0  0  0  0  0
    3.9530   -0.8610   -1.7800 N   0  0  0  0  0  0  0  0  0  0  0  0
    6.0680   -0.4780   -0.0490 S   0  0  0  0  0  0  0  0  0  0  0  0
    6.6710   -1.8860   -4.8260 C   0  0  0  0  0  0  0  0  0  0  0  0
    4.4000   -1.5640   -4.1370 O   0  0  0  0  0  0  0  0  0  0  0  0
   -2.5870   -0.2030   -0.7360 O   0  0  0  0  0  0  0  0  0  0  0  0
   -3.2230    0.4650    1.4600 C   0  0  0  0  0  0  0  0  0  0  0  0
    6.2980   -2.7220   -5.9010 C   0  0  0  0  0  0  0  0  0  0  0  0
    7.9550   -1.3910   -4.7460 C   0  0  0  0  0  0  0  0  0  0  0  0
    0.2780   -0.0950    0.1810 C   0  0  0  0  0  0  0  0  0  0  0  0
    2.7550   -0.5850   -1.0510 C   0  0  0  0  0  0  0  0  0  0  0  0
    8.9010   -1.7400   -5.7120 C   0  0  0  0  0  0  0  0  0  0  0  0
    7.2490   -3.0680   -6.8640 C   0  0  0  0  0  0  0  0  0  0  0  0
    8.5500   -2.5790   -6.7680 C   0  0  0  0  0  0  0  0  0  0  0  0
    1.4760    0.0470    0.8970 C   0  0  0  0  0  0  0  0  0  0  0  0
    0.3360   -0.4850   -1.1610 C   0  0  0  0  0  0  0  0  0  0  0  0
    2.7070   -0.1970    0.2840 C   0  0  0  0  0  0  0  0  0  0  0  0
    1.5710   -0.7290   -1.7720 C   0  0  0  0  0  0  0  0  0  0  0  0
   -4.4850    0.9450    0.9920 C   0  0  0  0  0  0  0  0  0  0  0  0
   -3.0270    0.3020    2.8110 C   0  0  0  0  0  0  0  0  0  0  0  0
    9.5650   -2.9540   -7.7980 C   0  0  0  0  0  0  0  0  0  0  0  0
   -5.4820    1.2800    1.9100 C   0  0  0  0  0  0  0  0  0  0  0  0
   -4.0280    0.6390    3.7250 C   0  0  0  0  0  0  0  0  0  0  0  0
   -5.2520    1.1290    3.2760 C   0  0  0  0  0  0  0  0  0  0  0  0
    7.0490   -1.2020   -2.3840 H   0  0  0  0  0  0  0  0  0  0  0  0
   -0.8230    0.4470    1.8490 H   0  0  0  0  0  0  0  0  0  0  0  0
    3.7760   -1.1280   -2.7380 H   0  0  0  0  0  0  0  0  0  0  0  0
    5.2860   -3.0910   -5.9780 H   0  0  0  0  0  0  0  0  0  0  0  0
    8.2300   -0.7320   -3.9350 H   0  0  0  0  0  0  0  0  0  0  0  0
    9.9090   -1.3580   -5.6410 H   0  0  0  0  0  0  0  0  0  0  0  0
    6.9750   -3.7150   -7.6840 H   0  0  0  0  0  0  0  0  0  0  0  0
    1.4460    0.3480    1.9340 H   0  0  0  0  0  0  0  0  0  0  0  0
   -0.5760   -0.5980   -1.7280 H   0  0  0  0  0  0  0  0  0  0  0  0
    3.6220   -0.0840    0.8470 H   0  0  0  0  0  0  0  0  0  0  0  0
    1.6070   -1.0310   -2.8080 H   0  0  0  0  0  0  0  0  0  0  0  0
   -4.6670    1.0480   -0.0680 H   0  0  0  0  0  0  0  0  0  0  0  0
   -2.0870   -0.0910    3.1700 H   0  0  0  0  0  0  0  0  0  0  0  0
   10.5170   -2.4810   -7.5590 H   0  0  0  0  0  0  0  0  0  0  0  0
    9.2280   -2.6180   -8.7790 H   0  0  0  0  0  0  0  0  0  0  0  0
    9.6900   -4.0370   -7.8080 H   0  0  0  0  0  0  0  0  0  0  0  0
   -6.4320    1.6560    1.5610 H   0  0  0  0  0  0  0  0  0  0  0  0
   -3.8520    0.5190    4.7840 H   0  0  0  0  0  0  0  0  0  0  0  0
   -6.0220    1.3920    3.9860 H   0  0  0  0  0  0  0  0  0  0  0  0
  1  2  1  0  0  0  0
  1  3  1  0  0  0  0
  1 29  1  0  0  0  0
  2  6  1  0  0  0  0
  2  7  2  0  0  0  0
  3  8  1  0  0  0  0
  3  9  2  0  0  0  0
  4  5  1  0  0  0  0
  4 10  2  0  0  0  0
  4 11  1  0  0  0  0
  5 14  1  0  0  0  0
  5 30  1  0  0  0  0
  6 15  1  0  0  0  0
  6 31  1  0  0  0  0
  8 12  1  0  0  0  0
  8 13  2  0  0  0  0
 11 23  2  0  0  0  0
 11 24  1  0  0  0  0
 12 17  2  0  0  0  0
 12 32  1  0  0  0  0
 13 16  1  0  0  0  0
 13 33  1  0  0  0  0
 14 19  2  0  0  0  0
 14 20  1  0  0  0  0
 15 21  2  0  0  0  0
 15 22  1  0  0  0  0
 16 18  2  0  0  0  0
 16 34  1  0  0  0  0
 17 18  1  0  0  0  0
 17 35  1  0  0  0  0
 18 25  1  0  0  0  0
 19 21  1  0  0  0  0
 19 36  1  0  0  0  0
 20 22  2  0  0  0  0
 20 37  1  0  0  0  0
 21 38  1  0  0  0  0
 22 39  1  0  0  0  0
 23 26  1  0  0  0  0
 23 40  1  0  0  0  0
 24 27  2  0  0  0  0
 24 41  1  0  0  0  0
 25 42  1  0  0  0  0
 25 43  1  0  0  0  0
 25 44  1  0  0  0  0
 26 28  2  0  0  0  0
 26 45  1  0  0  0  0
 27 28  1  0  0  0  0
 27 46  1  0  0  0  0
 28 47  1  0  0  0  0
M  END
>  <$CLUSTER>
155

>  <INDEX>
61593

$$$$
Chembridge 7986452
  MOE2020           3D

 39 41  0  0  1  0  0  0  0  0999 V2000
    0.4530   -0.4390   -0.1640 N   0  0  0  0  0  0  0  0  0  0  0  0
    1.1190   -1.1300    0.8420 C   0  0  0  0  0  0  0  0  0  0  0  0
    2.5670   -0.9920   -1.0430 C   0  0  3  0  0  0  0  0  0  0  0  0
    3.4960    0.2040   -0.8120 C   0  0  0  0  0  0  0  0  0  0  0  0
    1.1610   -0.5540   -1.4230 C   0  0  0  0  0  0  0  0  0  0  0  0
    2.3390   -1.7810    0.2360 C   0  0  0  0  0  0  0  0  0  0  0  0
    3.8770    0.7670   -1.9990 N   0  0  0  0  0  0  0  0  0  0  0  0
    7.2750    5.2570   -3.2340 C   0  0  0  0  0  0  0  0  0  0  0  0
   -0.7670    0.2770   -0.0440 C   0  0  0  0  0  0  0  0  0  0  0  0
    6.3780    4.0710   -2.8450 C   0  0  0  0  0  0  0  0  0  0  0  0
    0.8100   -1.2840    2.0180 O   0  0  0  0  0  0  0  0  0  0  0  0
    3.8360    0.5910    0.2850 O   0  0  0  0  0  0  0  0  0  0  0  0
    7.8260    5.2360   -4.3720 O   0  0  0  0  0  0  0  0  0  0  0  0
   -1.3680    0.5150    1.2010 C   0  0  0  0  0  0  0  0  0  0  0  0
   -1.4200    0.7730   -1.1870 C   0  0  0  0  0  0  0  0  0  0  0  0
    4.7230    1.8820   -2.2430 C   0  0  0  0  0  0  0  0  0  0  0  0
    6.1510    3.7050   -1.5210 C   0  0  0  0  0  0  0  0  0  0  0  0
    5.7790    3.3480   -3.8730 C   0  0  0  0  0  0  0  0  0  0  0  0
    7.3720    6.1270   -2.3210 O   0  5  0  0  0  0  0  0  0  0  0  0
   -3.1970    1.7070    0.1590 C   0  0  0  0  0  0  0  0  0  0  0  0
    4.9580    2.2600   -3.5740 C   0  0  0  0  0  0  0  0  0  0  0  0
    5.3280    2.6150   -1.2180 C   0  0  0  0  0  0  0  0  0  0  0  0
   -2.6220    1.4800   -1.0870 C   0  0  0  0  0  0  0  0  0  0  0  0
   -2.5700    1.2230    1.3030 C   0  0  0  0  0  0  0  0  0  0  0  0
   -4.6570    2.5720    0.2690 Cl  0  0  0  0  0  0  0  0  0  0  0  0
    3.0600   -1.5710   -1.8240 H   0  0  0  0  0  0  0  0  0  0  0  0
    1.1850    0.4060   -1.9390 H   0  0  0  0  0  0  0  0  0  0  0  0
    0.6870   -1.2990   -2.0630 H   0  0  0  0  0  0  0  0  0  0  0  0
    2.1510   -2.8320    0.0170 H   0  0  0  0  0  0  0  0  0  0  0  0
    3.1970   -1.6970    0.9030 H   0  0  0  0  0  0  0  0  0  0  0  0
    3.5010    0.3240   -2.8250 H   0  0  0  0  0  0  0  0  0  0  0  0
   -0.8940    0.1450    2.0980 H   0  0  0  0  0  0  0  0  0  0  0  0
   -0.9840    0.6040   -2.1610 H   0  0  0  0  0  0  0  0  0  0  0  0
    6.6130    4.2660   -0.7230 H   0  0  0  0  0  0  0  0  0  0  0  0
    5.9500    3.6290   -4.9020 H   0  0  0  0  0  0  0  0  0  0  0  0
    4.4980    1.7020   -4.3760 H   0  0  0  0  0  0  0  0  0  0  0  0
    5.1590    2.3390   -0.1880 H   0  0  0  0  0  0  0  0  0  0  0  0
   -3.1050    1.8510   -1.9790 H   0  0  0  0  0  0  0  0  0  0  0  0
   -3.0130    1.3950    2.2730 H   0  0  0  0  0  0  0  0  0  0  0  0
  1  2  1  0  0  0  0
  1  5  1  0  0  0  0
  1  9  1  0  0  0  0
  2  6  1  0  0  0  0
  2 11  2  0  0  0  0
  3  4  1  0  0  0  0
  3  5  1  0  0  0  0
  3  6  1  0  0  0  0
  3 26  1  0  0  0  0
  4  7  1  0  0  0  0
  4 12  2  0  0  0  0
  5 27  1  0  0  0  0
  5 28  1  0  0  0  0
  6 29  1  0  0  0  0
  6 30  1  0  0  0  0
  7 16  1  0  0  0  0
  7 31  1  0  0  0  0
  8 10  1  0  0  0  0
  8 13  2  0  0  0  0
  8 19  1  0  0  0  0
  9 14  1  0  0  0  0
  9 15  2  0  0  0  0
 10 17  1  0  0  0  0
 10 18  2  0  0  0  0
 14 24  2  0  0  0  0
 14 32  1  0  0  0  0
 15 23  1  0  0  0  0
 15 33  1  0  0  0  0
 16 21  2  0  0  0  0
 16 22  1  0  0  0  0
 17 22  2  0  0  0  0
 17 34  1  0  0  0  0
 18 21  1  0  0  0  0
 18 35  1  0  0  0  0
 20 23  2  0  0  0  0
 20 24  1  0  0  0  0
 20 25  1  0  0  0  0
 21 36  1  0  0  0  0
 22 37  1  0  0  0  0
 23 38  1  0  0  0  0
 24 39  1  0  0  0  0
M  CHG  1  19  -1
M  END
>  <$CLUSTER>
156

>  <INDEX>
99143

$$$$
Chem T&I ALBK0010503
  MOE2020           3D

 33 35  0  0  0  0  0  0  0  0999 V2000
    0.7290    0.0880    0.8370 C   0  0  0  0  0  0  0  0  0  0  0  0
    0.3470   -0.3690   -0.4920 C   0  0  0  0  0  0  0  0  0  0  0  0
   -1.4800    0.6110    0.5130 N   0  0  0  0  0  0  0  0  0  0  0  0
   -1.1110   -0.0080   -0.6690 C   0  0  0  0  0  0  0  0  0  0  0  0
   -0.4060    0.6700    1.3980 C   0  0  0  0  0  0  0  0  0  0  0  0
    1.1410   -0.9580   -1.3090 N   0  0  0  0  0  0  0  0  0  0  0  0
   -0.3870    1.2100    2.6670 C   0  0  0  0  0  0  0  0  0  0  0  0
    1.9280    0.0180    1.5080 C   0  0  0  0  0  0  0  0  0  0  0  0
   -0.4250   -3.0060   -3.9870 C   0  0  0  0  0  0  0  0  0  0  0  0
    0.0740   -2.6200   -2.7420 C   0  0  0  0  0  0  0  0  0  0  0  0
    0.6490   -1.3710   -2.6100 C   0  0  0  0  0  0  0  0  0  0  0  0
   -1.7690   -0.2400   -1.6670 O   0  0  0  0  0  0  0  0  0  0  0  0
    0.8200    1.1510    3.3700 C   0  0  0  0  0  0  0  0  0  0  0  0
    1.9660    0.5610    2.7960 C   0  0  0  0  0  0  0  0  0  0  0  0
   -0.3550   -2.1290   -5.0690 C   0  0  0  0  0  0  0  0  0  0  0  0
    0.2160   -0.8680   -4.9080 C   0  0  0  0  0  0  0  0  0  0  0  0
   -1.1170   -4.5510   -4.1750 Cl  0  0  0  0  0  0  0  0  0  0  0  0
    0.7150   -0.4810   -3.6630 C   0  0  0  0  0  0  0  0  0  0  0  0
    3.5310    0.5190    3.7890 Br  0  0  0  0  0  0  0  0  0  0  0  0
   -1.5840    1.8280    3.2710 C   0  0  0  0  0  0  0  0  0  0  0  0
   -0.8910   -2.5360   -6.4020 C   0  0  0  0  0  0  0  0  0  0  0  0
   -2.4030    0.9710    0.7070 H   0  0  0  0  0  0  0  0  0  0  0  0
    2.8000   -0.4360    1.0600 H   0  0  0  0  0  0  0  0  0  0  0  0
    0.0120   -3.2870   -1.8950 H   0  0  0  0  0  0  0  0  0  0  0  0
    0.8760    1.5630    4.3670 H   0  0  0  0  0  0  0  0  0  0  0  0
    0.2720   -0.1900   -5.7470 H   0  0  0  0  0  0  0  0  0  0  0  0
    1.1460    0.5000   -3.5260 H   0  0  0  0  0  0  0  0  0  0  0  0
   -2.4150    1.7740    2.5680 H   0  0  0  0  0  0  0  0  0  0  0  0
   -1.3740    2.8710    3.5070 H   0  0  0  0  0  0  0  0  0  0  0  0
   -1.8460    1.2950    4.1850 H   0  0  0  0  0  0  0  0  0  0  0  0
   -1.2950   -3.5460   -6.3380 H   0  0  0  0  0  0  0  0  0  0  0  0
   -0.0880   -2.5120   -7.1390 H   0  0  0  0  0  0  0  0  0  0  0  0
   -1.6800   -1.8470   -6.7020 H   0  0  0  0  0  0  0  0  0  0  0  0
  1  2  1  0  0  0  0
  1  5  2  0  0  0  0
  1  8  1  0  0  0  0
  2  4  1  0  0  0  0
  2  6  2  0  0  0  0
  3  4  1  0  0  0  0
  3  5  1  0  0  0  0
  3 22  1  0  0  0  0
  4 12  2  0  0  0  0
  5  7  1  0  0  0  0
  6 11  1  0  0  0  0
  7 13  2  0  0  0  0
  7 20  1  0  0  0  0
  8 14  2  0  0  0  0
  8 23  1  0  0  0  0
  9 10  2  0  0  0  0
  9 15  1  0  0  0  0
  9 17  1  0  0  0  0
 10 11  1  0  0  0  0
 10 24  1  0  0  0  0
 11 18  2  0  0  0  0
 13 14  1  0  0  0  0
 13 25  1  0  0  0  0
 14 19  1  0  0  0  0
 15 16  2  0  0  0  0
 15 21  1  0  0  0  0
 16 18  1  0  0  0  0
 16 26  1  0  0  0  0
 18 27  1  0  0  0  0
 20 28  1  0  0  0  0
 20 29  1  0  0  0  0
 20 30  1  0  0  0  0
 21 31  1  0  0  0  0
 21 32  1  0  0  0  0
 21 33  1  0  0  0  0
M  END
>  <$CLUSTER>
157

>  <INDEX>
504660

$$$$
Comgenex CGX-3077626
  MOE2020           3D

 56 58  0  0  0  0  0  0  0  0999 V2000
   -2.3900   -0.8240   -2.5300 N   0  0  0  0  0  0  0  0  0  0  0  0
   -1.5360    0.2020   -2.2880 C   0  0  0  0  0  0  0  0  0  0  0  0
   -2.9460   -0.8980   -3.7560 C   0  0  0  0  0  0  0  0  0  0  0  0
   -2.7400   -0.0450   -4.7760 N   0  0  0  0  0  0  0  0  0  0  0  0
   -0.9820    0.2830   -1.0830 N   0  0  0  0  0  0  0  0  0  0  0  0
   -3.4540   -3.5020   -7.2590 N   0  0  0  0  0  0  0  0  0  0  0  0
    0.9820   -0.2830    1.0830 N   0  0  0  0  0  0  0  0  0  0  0  0
   -1.2620    1.1330   -3.2840 C   0  0  0  0  0  0  0  0  0  0  0  0
   -1.8870    0.9640   -4.5040 C   0  0  0  0  0  0  0  0  0  0  0  0
   -3.4290   -2.2630   -6.7170 C   0  0  0  0  0  0  0  0  0  0  0  0
    1.4800   -0.3070    2.3370 C   0  0  0  0  0  0  0  0  0  0  0  0
   -4.0650   -2.2820   -4.0100 S   0  0  0  0  0  0  0  0  0  0  0  0
   -0.0330    1.3000   -0.5920 C   0  0  0  0  0  0  0  0  0  0  0  0
   -1.2520   -0.6880   -0.0050 C   0  0  0  0  0  0  0  0  0  0  0  0
    0.0330   -1.3000    0.5920 C   0  0  0  0  0  0  0  0  0  0  0  0
    1.2520    0.6880    0.0050 C   0  0  0  0  0  0  0  0  0  0  0  0
   -4.5570   -1.9870   -5.7310 C   0  0  0  0  0  0  0  0  0  0  0  0
   -4.4750   -4.5590   -7.0470 C   0  0  0  0  0  0  0  0  0  0  0  0
   -2.4050   -3.9210   -8.2290 C   0  0  0  0  0  0  0  0  0  0  0  0
   -2.5290   -1.4590   -6.9340 O   0  0  0  0  0  0  0  0  0  0  0  0
    1.1870   -1.1700    3.1690 O   0  0  0  0  0  0  0  0  0  0  0  0
   -1.6270    2.0360   -5.7870 Cl  0  0  0  0  0  0  0  0  0  0  0  0
   -3.8180   -5.8440   -6.5450 C   0  0  0  0  0  0  0  0  0  0  0  0
   -1.7120   -5.1930   -7.7460 C   0  0  0  0  0  0  0  0  0  0  0  0
   -2.7080   -6.3290   -7.4830 C   0  0  0  0  0  0  0  0  0  0  0  0
    2.4480    0.8120    2.6950 C   0  0  0  0  0  0  0  0  0  0  0  0
   -2.0030   -7.5570   -6.9110 C   0  0  0  0  0  0  0  0  0  0  0  0
    2.9610    0.7100    4.1230 C   0  0  0  0  0  0  0  0  0  0  0  0
   -0.5860    1.9570   -3.1100 H   0  0  0  0  0  0  0  0  0  0  0  0
   -0.5260    1.8920    0.1790 H   0  0  0  0  0  0  0  0  0  0  0  0
    0.2450    1.9470   -1.4240 H   0  0  0  0  0  0  0  0  0  0  0  0
   -1.8650   -1.4940   -0.4090 H   0  0  0  0  0  0  0  0  0  0  0  0
   -1.7970   -0.1810    0.7910 H   0  0  0  0  0  0  0  0  0  0  0  0
   -0.2450   -1.9470    1.4240 H   0  0  0  0  0  0  0  0  0  0  0  0
    0.5260   -1.8920   -0.1790 H   0  0  0  0  0  0  0  0  0  0  0  0
    1.7970    0.1810   -0.7910 H   0  0  0  0  0  0  0  0  0  0  0  0
    1.8650    1.4940    0.4090 H   0  0  0  0  0  0  0  0  0  0  0  0
   -5.3980   -2.6380   -5.9710 H   0  0  0  0  0  0  0  0  0  0  0  0
   -4.8630   -0.9460   -5.8330 H   0  0  0  0  0  0  0  0  0  0  0  0
   -4.9840   -4.7610   -7.9900 H   0  0  0  0  0  0  0  0  0  0  0  0
   -5.2000   -4.2150   -6.3090 H   0  0  0  0  0  0  0  0  0  0  0  0
   -1.6670   -3.1250   -8.3260 H   0  0  0  0  0  0  0  0  0  0  0  0
   -2.8670   -4.1090   -9.1980 H   0  0  0  0  0  0  0  0  0  0  0  0
   -4.5790   -6.6210   -6.4690 H   0  0  0  0  0  0  0  0  0  0  0  0
   -3.3890   -5.6580   -5.5600 H   0  0  0  0  0  0  0  0  0  0  0  0
   -1.1780   -4.9730   -6.8220 H   0  0  0  0  0  0  0  0  0  0  0  0
   -1.0020   -5.5170   -8.5070 H   0  0  0  0  0  0  0  0  0  0  0  0
   -3.1580   -6.6240   -8.4310 H   0  0  0  0  0  0  0  0  0  0  0  0
    1.9360    1.7670    2.5760 H   0  0  0  0  0  0  0  0  0  0  0  0
    3.2990    0.7680    2.0150 H   0  0  0  0  0  0  0  0  0  0  0  0
   -1.5400   -7.2990   -5.9590 H   0  0  0  0  0  0  0  0  0  0  0  0
   -1.2360   -7.8940   -7.6090 H   0  0  0  0  0  0  0  0  0  0  0  0
   -2.7300   -8.3550   -6.7570 H   0  0  0  0  0  0  0  0  0  0  0  0
    2.1200    0.7530    4.8150 H   0  0  0  0  0  0  0  0  0  0  0  0
    3.6400    1.5380    4.3250 H   0  0  0  0  0  0  0  0  0  0  0  0
    3.4900   -0.2340    4.2520 H   0  0  0  0  0  0  0  0  0  0  0  0
  1  2  1  0  0  0  0
  1  3  2  0  0  0  0
  2  5  1  0  0  0  0
  2  8  2  0  0  0  0
  3  4  1  0  0  0  0
  3 12  1  0  0  0  0
  4  9  2  0  0  0  0
  5 13  1  0  0  0  0
  5 14  1  0  0  0  0
  6 10  1  0  0  0  0
  6 18  1  0  0  0  0
  6 19  1  0  0  0  0
  7 11  1  0  0  0  0
  7 15  1  0  0  0  0
  7 16  1  0  0  0  0
  8  9  1  0  0  0  0
  8 29  1  0  0  0  0
  9 22  1  0  0  0  0
 10 17  1  0  0  0  0
 10 20  2  0  0  0  0
 11 21  2  0  0  0  0
 11 26  1  0  0  0  0
 12 17  1  0  0  0  0
 13 16  1  0  0  0  0
 13 30  1  0  0  0  0
 13 31  1  0  0  0  0
 14 15  1  0  0  0  0
 14 32  1  0  0  0  0
 14 33  1  0  0  0  0
 15 34  1  0  0  0  0
 15 35  1  0  0  0  0
 16 36  1  0  0  0  0
 16 37  1  0  0  0  0
 17 38  1  0  0  0  0
 17 39  1  0  0  0  0
 18 23  1  0  0  0  0
 18 40  1  0  0  0  0
 18 41  1  0  0  0  0
 19 24  1  0  0  0  0
 19 42  1  0  0  0  0
 19 43  1  0  0  0  0
 23 25  1  0  0  0  0
 23 44  1  0  0  0  0
 23 45  1  0  0  0  0
 24 25  1  0  0  0  0
 24 46  1  0  0  0  0
 24 47  1  0  0  0  0
 25 27  1  0  0  0  0
 25 48  1  0  0  0  0
 26 28  1  0  0  0  0
 26 49  1  0  0  0  0
 26 50  1  0  0  0  0
 27 51  1  0  0  0  0
 27 52  1  0  0  0  0
 27 53  1  0  0  0  0
 28 54  1  0  0  0  0
 28 55  1  0  0  0  0
 28 56  1  0  0  0  0
M  END
>  <$CLUSTER>
158

>  <INDEX>
257467

$$$$
Tripos 1514-11337
  MOE2020           3D

 47 50  0  0  0  0  0  0  0  0999 V2000
   -0.0180   -2.3240   -2.1310 C   0  0  0  0  0  0  0  0  0  0  0  0
   -0.2100   -1.5620   -1.0230 N   0  0  0  0  0  0  0  0  0  0  0  0
   -0.9600   -2.1730   -3.1270 N   0  0  0  0  0  0  0  0  0  0  0  0
    0.0510    0.8220    0.6960 N   0  3  0  0  0  0  0  0  0  0  0  0
    1.0380    2.5310    4.7960 C   0  0  0  0  0  0  0  0  0  0  0  0
    2.4200    2.3790    4.8780 C   0  0  0  0  0  0  0  0  0  0  0  0
    0.4700    2.7080    5.9980 O   0  0  0  0  0  0  0  0  0  0  0  0
    0.9310   -3.0980   -2.2810 O   0  0  0  0  0  0  0  0  0  0  0  0
    2.8660    2.4380    6.1400 O   0  0  0  0  0  0  0  0  0  0  0  0
    1.6300    2.6500    6.8590 C   0  0  0  0  0  0  0  0  0  0  0  0
   -1.1240   -2.7500   -4.3840 C   0  0  0  0  0  0  0  0  0  0  0  0
    0.4020    2.4870    3.5550 C   0  0  0  0  0  0  0  0  0  0  0  0
   -1.3610   -0.6890   -0.7360 C   0  0  0  0  0  0  0  0  0  0  0  0
    0.7800   -1.5030    0.0660 C   0  0  0  0  0  0  0  0  0  0  0  0
    1.1500    2.3060    2.3890 C   0  0  0  0  0  0  0  0  0  0  0  0
   -2.2270   -2.3690   -5.1640 C   0  0  0  0  0  0  0  0  0  0  0  0
    0.4550    2.2220    1.0390 C   0  0  0  0  0  0  0  0  0  0  0  0
    3.1680    2.1800    3.7200 C   0  0  0  0  0  0  0  0  0  0  0  0
   -0.9610    0.7750   -0.4350 C   0  0  0  0  0  0  0  0  0  0  0  0
    1.2470   -0.0640    0.3930 C   0  0  0  0  0  0  0  0  0  0  0  0
   -2.4290   -2.9210   -6.4310 C   0  0  0  0  0  0  0  0  0  0  0  0
    2.5350    2.1350    2.4770 C   0  0  0  0  0  0  0  0  0  0  0  0
   -3.8980   -2.3900   -7.4240 Br  0  0  0  0  0  0  0  0  0  0  0  0
   -0.4350   -4.2450   -6.1670 C   0  0  0  0  0  0  0  0  0  0  0  0
   -0.2280   -3.6940   -4.8970 C   0  0  0  0  0  0  0  0  0  0  0  0
   -1.5330   -3.8590   -6.9330 C   0  0  0  0  0  0  0  0  0  0  0  0
   -1.6810   -1.5050   -2.8970 H   0  0  0  0  0  0  0  0  0  0  0  0
   -0.4000    0.4520    1.5210 H   0  0  0  0  0  0  0  0  0  0  0  0
    1.4960    1.8310    7.5650 H   0  0  0  0  0  0  0  0  0  0  0  0
    1.7040    3.5910    7.4040 H   0  0  0  0  0  0  0  0  0  0  0  0
   -0.6710    2.5930    3.4960 H   0  0  0  0  0  0  0  0  0  0  0  0
   -1.8900   -1.0880    0.1300 H   0  0  0  0  0  0  0  0  0  0  0  0
   -2.0240   -0.6950   -1.6010 H   0  0  0  0  0  0  0  0  0  0  0  0
    1.6500   -2.0910   -0.2260 H   0  0  0  0  0  0  0  0  0  0  0  0
    0.3340   -1.9340    0.9620 H   0  0  0  0  0  0  0  0  0  0  0  0
   -2.9270   -1.6410   -4.7800 H   0  0  0  0  0  0  0  0  0  0  0  0
   -0.4370    2.8480    1.0640 H   0  0  0  0  0  0  0  0  0  0  0  0
    1.1350    2.5890    0.2710 H   0  0  0  0  0  0  0  0  0  0  0  0
    4.2390    2.0600    3.7840 H   0  0  0  0  0  0  0  0  0  0  0  0
   -0.5230    1.2190   -1.3290 H   0  0  0  0  0  0  0  0  0  0  0  0
   -1.8490    1.3390   -0.1470 H   0  0  0  0  0  0  0  0  0  0  0  0
    1.9060   -0.0880    1.2610 H   0  0  0  0  0  0  0  0  0  0  0  0
    1.7880    0.3420   -0.4620 H   0  0  0  0  0  0  0  0  0  0  0  0
    3.1160    1.9680    1.5820 H   0  0  0  0  0  0  0  0  0  0  0  0
    0.2610   -4.9740   -6.5560 H   0  0  0  0  0  0  0  0  0  0  0  0
    0.6270   -3.9990   -4.3110 H   0  0  0  0  0  0  0  0  0  0  0  0
   -1.6880   -4.2860   -7.9130 H   0  0  0  0  0  0  0  0  0  0  0  0
  1  2  1  0  0  0  0
  1  3  1  0  0  0  0
  1  8  2  0  0  0  0
  2 13  1  0  0  0  0
  2 14  1  0  0  0  0
  3 11  1  0  0  0  0
  3 27  1  0  0  0  0
  4 17  1  0  0  0  0
  4 19  1  0  0  0  0
  4 20  1  0  0  0  0
  4 28  1  0  0  0  0
  5  6  1  0  0  0  0
  5  7  1  0  0  0  0
  5 12  2  0  0  0  0
  6  9  1  0  0  0  0
  6 18  2  0  0  0  0
  7 10  1  0  0  0  0
  9 10  1  0  0  0  0
 10 29  1  0  0  0  0
 10 30  1  0  0  0  0
 11 16  2  0  0  0  0
 11 25  1  0  0  0  0
 12 15  1  0  0  0  0
 12 31  1  0  0  0  0
 13 19  1  0  0  0  0
 13 32  1  0  0  0  0
 13 33  1  0  0  0  0
 14 20  1  0  0  0  0
 14 34  1  0  0  0  0
 14 35  1  0  0  0  0
 15 17  1  0  0  0  0
 15 22  2  0  0  0  0
 16 21  1  0  0  0  0
 16 36  1  0  0  0  0
 17 37  1  0  0  0  0
 17 38  1  0  0  0  0
 18 22  1  0  0  0  0
 18 39  1  0  0  0  0
 19 40  1  0  0  0  0
 19 41  1  0  0  0  0
 20 42  1  0  0  0  0
 20 43  1  0  0  0  0
 21 23  1  0  0  0  0
 21 26  2  0  0  0  0
 22 44  1  0  0  0  0
 24 25  2  0  0  0  0
 24 26  1  0  0  0  0
 24 45  1  0  0  0  0
 25 46  1  0  0  0  0
 26 47  1  0  0  0  0
M  CHG  1   4   1
M  END
>  <$CLUSTER>
159

>  <INDEX>
441561

$$$$
Bionet 8E-034
  MOE2020           3D

 38 39  0  0  0  0  0  0  0  0999 V2000
    0.5110    0.3500    0.0410 C   0  0  0  0  0  0  0  0  0  0  0  0
   -0.6720   -0.5690   -0.0670 C   0  0  0  0  0  0  0  0  0  0  0  0
  -10.0220   -1.1620   -2.3210 N   0  0  0  0  0  0  0  0  0  0  0  0
   -2.9960   -1.9910   -0.2560 C   0  0  0  0  0  0  0  0  0  0  0  0
   -3.1140   -0.6470   -0.0650 N   0  0  0  0  0  0  0  0  0  0  0  0
   -8.8100   -0.6440   -2.7210 C   0  0  0  0  0  0  0  0  0  0  0  0
  -11.0800   -0.7270   -2.8560 C   0  0  0  0  0  0  0  0  0  0  0  0
   -1.7690   -2.6550   -0.3290 C   0  0  0  0  0  0  0  0  0  0  0  0
   -0.5740   -1.9010   -0.2360 C   0  0  0  0  0  0  0  0  0  0  0  0
   -4.1560   -2.7550   -0.3000 O   0  0  0  0  0  0  0  0  0  0  0  0
   -2.0060    0.1090    0.0270 C   0  0  0  0  0  0  0  0  0  0  0  0
   -7.5950   -1.1900   -2.0650 C   0  0  0  0  0  0  0  0  0  0  0  0
   -8.7030    0.2220   -3.5850 O   0  0  0  0  0  0  0  0  0  0  0  0
    0.5260    1.0200    1.2260 F   0  0  0  0  0  0  0  0  0  0  0  0
    0.5110    1.2930   -0.9410 F   0  0  0  0  0  0  0  0  0  0  0  0
    1.7040   -0.3010   -0.0500 F   0  0  0  0  0  0  0  0  0  0  0  0
  -12.3610   -1.0530   -2.6540 N   0  0  0  0  0  0  0  0  0  0  0  0
   -6.3890   -1.1380   -2.7670 C   0  0  0  0  0  0  0  0  0  0  0  0
   -7.6370   -1.7520   -0.7870 C   0  0  0  0  0  0  0  0  0  0  0  0
   -5.2620   -2.1820   -0.8990 C   0  0  0  0  0  0  0  0  0  0  0  0
   -1.6550   -4.3590   -0.5370 Cl  0  0  0  0  0  0  0  0  0  0  0  0
   -6.4720   -2.2570   -0.2060 C   0  0  0  0  0  0  0  0  0  0  0  0
   -5.2210   -1.6410   -2.1910 C   0  0  0  0  0  0  0  0  0  0  0  0
  -12.7360   -2.0790   -1.6690 C   0  0  0  0  0  0  0  0  0  0  0  0
  -13.4870   -0.4420   -3.3690 C   0  0  0  0  0  0  0  0  0  0  0  0
  -10.9240    0.0370   -3.6030 H   0  0  0  0  0  0  0  0  0  0  0  0
    0.3910   -2.3820   -0.2990 H   0  0  0  0  0  0  0  0  0  0  0  0
   -2.0750    1.1780    0.1650 H   0  0  0  0  0  0  0  0  0  0  0  0
   -6.3600   -0.7080   -3.7570 H   0  0  0  0  0  0  0  0  0  0  0  0
   -8.5720   -1.7960   -0.2480 H   0  0  0  0  0  0  0  0  0  0  0  0
   -6.5070   -2.7040    0.7760 H   0  0  0  0  0  0  0  0  0  0  0  0
   -4.2900   -1.6130   -2.7380 H   0  0  0  0  0  0  0  0  0  0  0  0
  -11.8370   -2.4710   -1.1930 H   0  0  0  0  0  0  0  0  0  0  0  0
  -13.2640   -2.8890   -2.1710 H   0  0  0  0  0  0  0  0  0  0  0  0
  -13.3840   -1.6370   -0.9120 H   0  0  0  0  0  0  0  0  0  0  0  0
  -13.1110    0.3010   -4.0720 H   0  0  0  0  0  0  0  0  0  0  0  0
  -14.1530    0.0400   -2.6530 H   0  0  0  0  0  0  0  0  0  0  0  0
  -14.0340   -1.2130   -3.9120 H   0  0  0  0  0  0  0  0  0  0  0  0
  1  2  1  0  0  0  0
  1 14  1  0  0  0  0
  1 15  1  0  0  0  0
  1 16  1  0  0  0  0
  2  9  2  0  0  0  0
  2 11  1  0  0  0  0
  3  6  1  0  0  0  0
  3  7  2  0  0  0  0
  4  5  1  0  0  0  0
  4  8  2  0  0  0  0
  4 10  1  0  0  0  0
  5 11  2  0  0  0  0
  6 12  1  0  0  0  0
  6 13  2  0  0  0  0
  7 17  1  0  0  0  0
  7 26  1  0  0  0  0
  8  9  1  0  0  0  0
  8 21  1  0  0  0  0
  9 27  1  0  0  0  0
 10 20  1  0  0  0  0
 11 28  1  0  0  0  0
 12 18  1  0  0  0  0
 12 19  2  0  0  0  0
 17 24  1  0  0  0  0
 17 25  1  0  0  0  0
 18 23  2  0  0  0  0
 18 29  1  0  0  0  0
 19 22  1  0  0  0  0
 19 30  1  0  0  0  0
 20 22  2  0  0  0  0
 20 23  1  0  0  0  0
 22 31  1  0  0  0  0
 23 32  1  0  0  0  0
 24 33  1  0  0  0  0
 24 34  1  0  0  0  0
 24 35  1  0  0  0  0
 25 36  1  0  0  0  0
 25 37  1  0  0  0  0
 25 38  1  0  0  0  0
M  END
>  <$CLUSTER>
160

>  <INDEX>
106077

$$$$
InterBioScreen STOCK5S-21287
  MOE2020           3D

 45 47  0  0  0  0  0  0  0  0999 V2000
   -6.5780   -1.7640    1.6980 N   0  0  0  0  0  0  0  0  0  0  0  0
   -7.6480   -2.2540    1.0100 C   0  0  0  0  0  0  0  0  0  0  0  0
   -7.7870   -1.8110   -0.2430 N   0  0  0  0  0  0  0  0  0  0  0  0
   -6.0550   -0.9720    0.8110 C   0  0  0  0  0  0  0  0  0  0  0  0
   -6.6970   -0.9440   -0.3850 O   0  0  0  0  0  0  0  0  0  0  0  0
   -8.5720   -3.2210    1.6360 C   0  0  0  0  0  0  0  0  0  0  0  0
   -8.3650   -3.6420    2.9590 C   0  0  0  0  0  0  0  0  0  0  0  0
   -9.2360   -4.5550    3.5590 C   0  0  0  0  0  0  0  0  0  0  0  0
   -2.3020   -0.0370    0.5150 C   0  0  0  0  0  0  0  0  0  0  0  0
   -1.2050   -0.7540    0.0560 N   0  0  0  0  0  0  0  0  0  0  0  0
  -10.3240   -5.0560    2.8480 C   0  0  0  0  0  0  0  0  0  0  0  0
   -9.6710   -3.7330    0.9310 C   0  0  0  0  0  0  0  0  0  0  0  0
   -2.3280    1.1100    0.9500 O   0  0  0  0  0  0  0  0  0  0  0  0
  -10.5410   -4.6460    1.5350 C   0  0  0  0  0  0  0  0  0  0  0  0
    0.1400   -0.3200   -0.0120 C   0  0  0  0  0  0  0  0  0  0  0  0
   -4.8100   -0.1320    0.9130 C   0  0  0  0  0  0  0  0  0  0  0  0
   -3.5650   -0.8570    0.4240 C   0  0  0  0  0  0  0  0  0  0  0  0
    2.8550    0.3720   -0.2200 C   0  0  0  0  0  0  0  0  0  0  0  0
   -9.0940   -5.0150    4.8550 O   0  0  0  0  0  0  0  0  0  0  0  0
    4.5010    0.7830   -0.3510 Cl  0  0  0  0  0  0  0  0  0  0  0  0
    0.5810    0.9460    0.3870 C   0  0  0  0  0  0  0  0  0  0  0  0
    1.0770   -1.2340   -0.5170 C   0  0  0  0  0  0  0  0  0  0  0  0
  -11.1270   -5.9500    3.5210 O   0  0  0  0  0  0  0  0  0  0  0  0
    2.4270   -0.8900   -0.6200 C   0  0  0  0  0  0  0  0  0  0  0  0
    1.9340    1.2870    0.2830 C   0  0  0  0  0  0  0  0  0  0  0  0
   -7.9950   -4.5240    5.6120 C   0  0  0  0  0  0  0  0  0  0  0  0
  -12.2460   -6.4810    2.8220 C   0  0  0  0  0  0  0  0  0  0  0  0
   -7.5250   -3.2570    3.5180 H   0  0  0  0  0  0  0  0  0  0  0  0
   -1.3880   -1.6930   -0.2660 H   0  0  0  0  0  0  0  0  0  0  0  0
   -9.8470   -3.4190   -0.0870 H   0  0  0  0  0  0  0  0  0  0  0  0
  -11.3830   -5.0340    0.9820 H   0  0  0  0  0  0  0  0  0  0  0  0
   -4.6630    0.1470    1.9560 H   0  0  0  0  0  0  0  0  0  0  0  0
   -4.9470    0.7670    0.3130 H   0  0  0  0  0  0  0  0  0  0  0  0
   -3.4340   -1.7570    1.0250 H   0  0  0  0  0  0  0  0  0  0  0  0
   -3.7180   -1.1360   -0.6180 H   0  0  0  0  0  0  0  0  0  0  0  0
   -0.1260    1.6630    0.7770 H   0  0  0  0  0  0  0  0  0  0  0  0
    0.7510   -2.2150   -0.8300 H   0  0  0  0  0  0  0  0  0  0  0  0
    3.1380   -1.6030   -1.0100 H   0  0  0  0  0  0  0  0  0  0  0  0
    2.2660    2.2660    0.5950 H   0  0  0  0  0  0  0  0  0  0  0  0
   -8.0110   -4.9700    6.6060 H   0  0  0  0  0  0  0  0  0  0  0  0
   -8.0690   -3.4400    5.6990 H   0  0  0  0  0  0  0  0  0  0  0  0
   -7.0630   -4.7860    5.1110 H   0  0  0  0  0  0  0  0  0  0  0  0
  -12.7870   -7.1690    3.4720 H   0  0  0  0  0  0  0  0  0  0  0  0
  -11.9010   -7.0130    1.9350 H   0  0  0  0  0  0  0  0  0  0  0  0
  -12.9070   -5.6680    2.5230 H   0  0  0  0  0  0  0  0  0  0  0  0
  1  2  1  0  0  0  0
  1  4  2  0  0  0  0
  2  3  2  0  0  0  0
  2  6  1  0  0  0  0
  3  5  1  0  0  0  0
  4  5  1  0  0  0  0
  4 16  1  0  0  0  0
  6  7  1  0  0  0  0
  6 12  2  0  0  0  0
  7  8  2  0  0  0  0
  7 28  1  0  0  0  0
  8 11  1  0  0  0  0
  8 19  1  0  0  0  0
  9 10  1  0  0  0  0
  9 13  2  0  0  0  0
  9 17  1  0  0  0  0
 10 15  1  0  0  0  0
 10 29  1  0  0  0  0
 11 14  2  0  0  0  0
 11 23  1  0  0  0  0
 12 14  1  0  0  0  0
 12 30  1  0  0  0  0
 14 31  1  0  0  0  0
 15 21  1  0  0  0  0
 15 22  2  0  0  0  0
 16 17  1  0  0  0  0
 16 32  1  0  0  0  0
 16 33  1  0  0  0  0
 17 34  1  0  0  0  0
 17 35  1  0  0  0  0
 18 20  1  0  0  0  0
 18 24  2  0  0  0  0
 18 25  1  0  0  0  0
 19 26  1  0  0  0  0
 21 25  2  0  0  0  0
 21 36  1  0  0  0  0
 22 24  1  0  0  0  0
 22 37  1  0  0  0  0
 23 27  1  0  0  0  0
 24 38  1  0  0  0  0
 25 39  1  0  0  0  0
 26 40  1  0  0  0  0
 26 41  1  0  0  0  0
 26 42  1  0  0  0  0
 27 43  1  0  0  0  0
 27 44  1  0  0  0  0
 27 45  1  0  0  0  0
M  END
>  <$CLUSTER>
161

>  <INDEX>
368568

$$$$
Chembridge 9001855
  MOE2020           3D

 56 59  0  0  0  0  0  0  0  0999 V2000
    1.3630    1.4790   -0.3460 C   0  0  0  0  0  0  0  0  0  0  0  0
    0.3200    0.5500   -0.8350 C   0  0  0  0  0  0  0  0  0  0  0  0
   -0.0810   -0.6390    3.7940 C   0  0  0  0  0  0  0  0  0  0  0  0
   -0.6960   -0.9780    2.4580 C   0  0  0  0  0  0  0  0  0  0  0  0
    2.5320    1.5020   -1.0730 N   0  0  0  0  0  0  0  0  0  0  0  0
   -0.1080   -0.2420    1.4370 N   0  0  0  0  0  0  0  0  0  0  0  0
   -0.4100   -0.2730    0.0500 C   0  0  0  0  0  0  0  0  0  0  0  0
    4.4580    2.4950   -3.0700 N   0  0  0  0  0  0  0  0  0  0  0  0
   -0.9280   -0.4830    4.9240 C   0  0  0  0  0  0  0  0  0  0  0  0
    1.2970   -0.5720    3.9320 C   0  0  0  0  0  0  0  0  0  0  0  0
    1.1680    2.1590    0.6560 O   0  0  0  0  0  0  0  0  0  0  0  0
   -1.5940   -1.8090    2.3760 O   0  0  0  0  0  0  0  0  0  0  0  0
    3.6350    2.3950   -0.6630 C   0  0  0  0  0  0  0  0  0  0  0  0
    2.8260    0.7120   -2.2730 C   0  0  0  0  0  0  0  0  0  0  0  0
    3.3240    1.6230   -3.4320 C   0  0  0  0  0  0  0  0  0  0  0  0
    4.1110    3.2650   -1.8600 C   0  0  0  0  0  0  0  0  0  0  0  0
    5.6070    2.5720   -3.7260 C   0  0  0  0  0  0  0  0  0  0  0  0
   -0.3370   -0.2200    6.1660 C   0  0  0  0  0  0  0  0  0  0  0  0
    1.8670   -0.3100    5.1740 C   0  0  0  0  0  0  0  0  0  0  0  0
    0.0490    0.5360   -2.2120 C   0  0  0  0  0  0  0  0  0  0  0  0
    1.0520   -0.1330    6.2890 C   0  0  0  0  0  0  0  0  0  0  0  0
    3.5610   -0.2070    5.3160 Cl  0  0  0  0  0  0  0  0  0  0  0  0
   -2.2800   -0.5620    4.7120 O   0  0  0  0  0  0  0  0  0  0  0  0
   -1.4000   -1.1070   -0.4880 C   0  0  0  0  0  0  0  0  0  0  0  0
    5.8640    1.8010   -4.8770 C   0  0  0  0  0  0  0  0  0  0  0  0
    6.6460    3.4330   -3.3160 C   0  0  0  0  0  0  0  0  0  0  0  0
   -3.1320   -0.4230    5.8430 C   0  0  0  0  0  0  0  0  0  0  0  0
   -0.9380   -0.3020   -2.7230 C   0  0  0  0  0  0  0  0  0  0  0  0
   -1.6600   -1.1220   -1.8630 C   0  0  0  0  0  0  0  0  0  0  0  0
    7.8620    3.5180   -4.0070 C   0  0  0  0  0  0  0  0  0  0  0  0
    7.0780    1.8810   -5.5730 C   0  0  0  0  0  0  0  0  0  0  0  0
    8.0770    2.7400   -5.1370 C   0  0  0  0  0  0  0  0  0  0  0  0
    0.6250    0.3940    1.7160 H   0  0  0  0  0  0  0  0  0  0  0  0
    1.9310   -0.7240    3.0710 H   0  0  0  0  0  0  0  0  0  0  0  0
    4.4690    1.7920   -0.3050 H   0  0  0  0  0  0  0  0  0  0  0  0
    3.2880    3.0480    0.1380 H   0  0  0  0  0  0  0  0  0  0  0  0
    1.9200    0.1950   -2.5900 H   0  0  0  0  0  0  0  0  0  0  0  0
    3.5990   -0.0200   -2.0380 H   0  0  0  0  0  0  0  0  0  0  0  0
    3.6340    0.9850   -4.2600 H   0  0  0  0  0  0  0  0  0  0  0  0
    2.4950    2.2550   -3.7510 H   0  0  0  0  0  0  0  0  0  0  0  0
    3.3120    3.9610   -2.1160 H   0  0  0  0  0  0  0  0  0  0  0  0
    4.9930    3.8240   -1.5460 H   0  0  0  0  0  0  0  0  0  0  0  0
   -0.9610   -0.0830    7.0370 H   0  0  0  0  0  0  0  0  0  0  0  0
    0.6080    1.1770   -2.8770 H   0  0  0  0  0  0  0  0  0  0  0  0
    1.4950    0.0720    7.2520 H   0  0  0  0  0  0  0  0  0  0  0  0
   -1.9710   -1.7470    0.1680 H   0  0  0  0  0  0  0  0  0  0  0  0
    5.1000    1.1260   -5.2350 H   0  0  0  0  0  0  0  0  0  0  0  0
    6.4990    4.0470   -2.4400 H   0  0  0  0  0  0  0  0  0  0  0  0
   -4.1720   -0.5070    5.5270 H   0  0  0  0  0  0  0  0  0  0  0  0
   -2.9690    0.5520    6.3030 H   0  0  0  0  0  0  0  0  0  0  0  0
   -2.9080   -1.2080    6.5660 H   0  0  0  0  0  0  0  0  0  0  0  0
   -1.1420   -0.3150   -3.7830 H   0  0  0  0  0  0  0  0  0  0  0  0
   -2.4250   -1.7740   -2.2580 H   0  0  0  0  0  0  0  0  0  0  0  0
    8.6330    4.1900   -3.6600 H   0  0  0  0  0  0  0  0  0  0  0  0
    7.2360    1.2720   -6.4510 H   0  0  0  0  0  0  0  0  0  0  0  0
    9.0130    2.8030   -5.6720 H   0  0  0  0  0  0  0  0  0  0  0  0
  1  2  1  0  0  0  0
  1  5  1  0  0  0  0
  1 11  2  0  0  0  0
  2  7  2  0  0  0  0
  2 20  1  0  0  0  0
  3  4  1  0  0  0  0
  3  9  2  0  0  0  0
  3 10  1  0  0  0  0
  4  6  1  0  0  0  0
  4 12  2  0  0  0  0
  5 13  1  0  0  0  0
  5 14  1  0  0  0  0
  6  7  1  0  0  0  0
  6 33  1  0  0  0  0
  7 24  1  0  0  0  0
  8 15  1  0  0  0  0
  8 16  1  0  0  0  0
  8 17  1  0  0  0  0
  9 18  1  0  0  0  0
  9 23  1  0  0  0  0
 10 19  2  0  0  0  0
 10 34  1  0  0  0  0
 13 16  1  0  0  0  0
 13 35  1  0  0  0  0
 13 36  1  0  0  0  0
 14 15  1  0  0  0  0
 14 37  1  0  0  0  0
 14 38  1  0  0  0  0
 15 39  1  0  0  0  0
 15 40  1  0  0  0  0
 16 41  1  0  0  0  0
 16 42  1  0  0  0  0
 17 25  1  0  0  0  0
 17 26  2  0  0  0  0
 18 21  2  0  0  0  0
 18 43  1  0  0  0  0
 19 21  1  0  0  0  0
 19 22  1  0  0  0  0
 20 28  2  0  0  0  0
 20 44  1  0  0  0  0
 21 45  1  0  0  0  0
 23 27  1  0  0  0  0
 24 29  2  0  0  0  0
 24 46  1  0  0  0  0
 25 31  2  0  0  0  0
 25 47  1  0  0  0  0
 26 30  1  0  0  0  0
 26 48  1  0  0  0  0
 27 49  1  0  0  0  0
 27 50  1  0  0  0  0
 27 51  1  0  0  0  0
 28 29  1  0  0  0  0
 28 52  1  0  0  0  0
 29 53  1  0  0  0  0
 30 32  2  0  0  0  0
 30 54  1  0  0  0  0
 31 32  1  0  0  0  0
 31 55  1  0  0  0  0
 32 56  1  0  0  0  0
M  END
>  <$CLUSTER>
162

>  <INDEX>
107851

$$$$
Chembridge 9003491
  MOE2020           3D

 52 54  0  0  0  0  0  0  0  0999 V2000
   -1.0850   -1.5980   -4.9300 S   0  0  0  0  0  0  0  0  0  0  0  0
   -1.7760   -1.8990   -3.4220 N   0  0  0  0  0  0  0  0  0  0  0  0
   -1.4800    0.3030   -2.3320 C   0  0  0  0  0  0  0  0  0  0  0  0
   -2.4400   -0.8020   -2.6940 C   0  0  0  0  0  0  0  0  0  0  0  0
   -0.9820    0.2830   -1.0830 N   0  0  0  0  0  0  0  0  0  0  0  0
    0.9820   -0.2830    1.0830 N   0  0  0  0  0  0  0  0  0  0  0  0
   -0.2670   -0.3860   -4.7660 O   0  0  0  0  0  0  0  0  0  0  0  0
   -0.4690   -2.8090   -5.4030 O   0  0  0  0  0  0  0  0  0  0  0  0
   -2.4800   -1.1890   -5.9730 C   0  0  0  0  0  0  0  0  0  0  0  0
   -0.0330    1.3000   -0.5920 C   0  0  0  0  0  0  0  0  0  0  0  0
   -1.2520   -0.6880   -0.0050 C   0  0  0  0  0  0  0  0  0  0  0  0
    1.2520    0.6880    0.0050 C   0  0  0  0  0  0  0  0  0  0  0  0
    0.0330   -1.3000    0.5920 C   0  0  0  0  0  0  0  0  0  0  0  0
   -1.1990    1.1590   -3.1770 O   0  0  0  0  0  0  0  0  0  0  0  0
    1.5090   -0.2470    2.2980 C   0  0  0  0  0  0  0  0  0  0  0  0
   -2.6220   -3.1240   -3.3290 C   0  0  0  0  0  0  0  0  0  0  0  0
   -3.1120   -2.2230   -6.6520 C   0  0  0  0  0  0  0  0  0  0  0  0
   -2.8840    0.1280   -6.0900 C   0  0  0  0  0  0  0  0  0  0  0  0
    2.4120    0.7610    2.6920 C   0  0  0  0  0  0  0  0  0  0  0  0
    1.2000   -1.2150    3.2760 C   0  0  0  0  0  0  0  0  0  0  0  0
   -1.8750   -4.4290   -3.5730 C   0  0  0  0  0  0  0  0  0  0  0  0
   -3.9620    0.4280   -6.9240 C   0  0  0  0  0  0  0  0  0  0  0  0
   -4.1890   -1.9150   -7.4850 C   0  0  0  0  0  0  0  0  0  0  0  0
    1.7560   -1.1810    4.5620 C   0  0  0  0  0  0  0  0  0  0  0  0
    2.9710    0.8010    3.9760 C   0  0  0  0  0  0  0  0  0  0  0  0
   -4.6130   -0.5920   -7.6200 C   0  0  0  0  0  0  0  0  0  0  0  0
    2.6430   -0.1710    4.9120 C   0  0  0  0  0  0  0  0  0  0  0  0
   -2.8770   -1.2020   -1.7790 H   0  0  0  0  0  0  0  0  0  0  0  0
   -3.2290   -0.3900   -3.3230 H   0  0  0  0  0  0  0  0  0  0  0  0
   -0.5260    1.8920    0.1790 H   0  0  0  0  0  0  0  0  0  0  0  0
    0.2450    1.9470   -1.4240 H   0  0  0  0  0  0  0  0  0  0  0  0
   -1.8650   -1.4940   -0.4090 H   0  0  0  0  0  0  0  0  0  0  0  0
   -1.7970   -0.1810    0.7910 H   0  0  0  0  0  0  0  0  0  0  0  0
    1.7970    0.1810   -0.7910 H   0  0  0  0  0  0  0  0  0  0  0  0
    1.8650    1.4940    0.4090 H   0  0  0  0  0  0  0  0  0  0  0  0
   -0.2450   -1.9470    1.4240 H   0  0  0  0  0  0  0  0  0  0  0  0
    0.5260   -1.8920   -0.1790 H   0  0  0  0  0  0  0  0  0  0  0  0
   -3.4180   -3.0440   -4.0690 H   0  0  0  0  0  0  0  0  0  0  0  0
   -3.0570   -3.1620   -2.3300 H   0  0  0  0  0  0  0  0  0  0  0  0
   -2.7770   -3.2430   -6.5380 H   0  0  0  0  0  0  0  0  0  0  0  0
   -2.3750    0.9100   -5.5460 H   0  0  0  0  0  0  0  0  0  0  0  0
    2.6820    1.5280    1.9810 H   0  0  0  0  0  0  0  0  0  0  0  0
    0.5120   -2.0090    3.0260 H   0  0  0  0  0  0  0  0  0  0  0  0
   -1.4310   -4.4130   -4.5680 H   0  0  0  0  0  0  0  0  0  0  0  0
   -2.5700   -5.2650   -3.4990 H   0  0  0  0  0  0  0  0  0  0  0  0
   -1.0890   -4.5430   -2.8260 H   0  0  0  0  0  0  0  0  0  0  0  0
   -4.2930    1.4500   -7.0310 H   0  0  0  0  0  0  0  0  0  0  0  0
   -4.6950   -2.7010   -8.0260 H   0  0  0  0  0  0  0  0  0  0  0  0
    1.4940   -1.9420    5.2820 H   0  0  0  0  0  0  0  0  0  0  0  0
    3.6590    1.5910    4.2390 H   0  0  0  0  0  0  0  0  0  0  0  0
   -5.4470   -0.3570   -8.2650 H   0  0  0  0  0  0  0  0  0  0  0  0
    3.0730   -0.1420    5.9020 H   0  0  0  0  0  0  0  0  0  0  0  0
  1  2  1  0  0  0  0
  1  7  2  0  0  0  0
  1  8  2  0  0  0  0
  1  9  1  0  0  0  0
  2  4  1  0  0  0  0
  2 16  1  0  0  0  0
  3  4  1  0  0  0  0
  3  5  1  0  0  0  0
  3 14  2  0  0  0  0
  4 28  1  0  0  0  0
  4 29  1  0  0  0  0
  5 10  1  0  0  0  0
  5 11  1  0  0  0  0
  6 12  1  0  0  0  0
  6 13  1  0  0  0  0
  6 15  1  0  0  0  0
  9 17  1  0  0  0  0
  9 18  2  0  0  0  0
 10 12  1  0  0  0  0
 10 30  1  0  0  0  0
 10 31  1  0  0  0  0
 11 13  1  0  0  0  0
 11 32  1  0  0  0  0
 11 33  1  0  0  0  0
 12 34  1  0  0  0  0
 12 35  1  0  0  0  0
 13 36  1  0  0  0  0
 13 37  1  0  0  0  0
 15 19  1  0  0  0  0
 15 20  2  0  0  0  0
 16 21  1  0  0  0  0
 16 38  1  0  0  0  0
 16 39  1  0  0  0  0
 17 23  2  0  0  0  0
 17 40  1  0  0  0  0
 18 22  1  0  0  0  0
 18 41  1  0  0  0  0
 19 25  2  0  0  0  0
 19 42  1  0  0  0  0
 20 24  1  0  0  0  0
 20 43  1  0  0  0  0
 21 44  1  0  0  0  0
 21 45  1  0  0  0  0
 21 46  1  0  0  0  0
 22 26  2  0  0  0  0
 22 47  1  0  0  0  0
 23 26  1  0  0  0  0
 23 48  1  0  0  0  0
 24 27  2  0  0  0  0
 24 49  1  0  0  0  0
 25 27  1  0  0  0  0
 25 50  1  0  0  0  0
 26 51  1  0  0  0  0
 27 52  1  0  0  0  0
M  END
>  <$CLUSTER>
163

>  <INDEX>
108128

$$$$
Chemdiv 1683-5131
  MOE2020           3D

 41 42  0  0  0  0  0  0  0  0999 V2000
   -2.2200    0.1030    0.3940 C   0  0  0  0  0  0  0  0  0  0  0  0
   -0.9220    0.1730    0.8820 N   0  0  0  0  0  0  0  0  0  0  0  0
    4.0720   -0.8310   -1.6550 C   0  0  0  0  0  0  0  0  0  0  0  0
   -3.2230    0.4650    1.4600 C   0  0  0  0  0  0  0  0  0  0  0  0
    2.7550   -0.5850   -1.0510 C   0  0  0  0  0  0  0  0  0  0  0  0
   -2.5870   -0.2030   -0.7360 O   0  0  0  0  0  0  0  0  0  0  0  0
   -4.4850    0.9450    0.9920 C   0  0  0  0  0  0  0  0  0  0  0  0
    5.1330   -0.7170   -1.0580 O   0  0  0  0  0  0  0  0  0  0  0  0
    0.2780   -0.0950    0.1810 C   0  0  0  0  0  0  0  0  0  0  0  0
    2.7070   -0.1970    0.2840 C   0  0  0  0  0  0  0  0  0  0  0  0
    1.5710   -0.7290   -1.7720 C   0  0  0  0  0  0  0  0  0  0  0  0
   -5.4820    1.2800    1.9100 C   0  0  0  0  0  0  0  0  0  0  0  0
    3.9730   -1.2000   -2.9510 O   0  0  0  0  0  0  0  0  0  0  0  0
    1.4760    0.0470    0.8970 C   0  0  0  0  0  0  0  0  0  0  0  0
    0.3360   -0.4850   -1.1610 C   0  0  0  0  0  0  0  0  0  0  0  0
   -6.9840    1.8760    1.3730 Cl  0  0  0  0  0  0  0  0  0  0  0  0
   -3.0270    0.3020    2.8110 C   0  0  0  0  0  0  0  0  0  0  0  0
   -4.0280    0.6390    3.7250 C   0  0  0  0  0  0  0  0  0  0  0  0
   -5.2520    1.1290    3.2760 C   0  0  0  0  0  0  0  0  0  0  0  0
    5.1770   -1.4720   -3.6610 C   0  0  0  0  0  0  0  0  0  0  0  0
    4.8330   -1.8610   -5.0850 C   0  0  0  0  0  0  0  0  0  0  0  0
    6.0730   -2.1640   -5.9060 C   0  0  0  0  0  0  0  0  0  0  0  0
    5.7270   -2.5540   -7.3360 C   0  0  0  0  0  0  0  0  0  0  0  0
   -0.8230    0.4470    1.8490 H   0  0  0  0  0  0  0  0  0  0  0  0
   -4.6670    1.0480   -0.0680 H   0  0  0  0  0  0  0  0  0  0  0  0
    3.6220   -0.0840    0.8470 H   0  0  0  0  0  0  0  0  0  0  0  0
    1.6070   -1.0310   -2.8080 H   0  0  0  0  0  0  0  0  0  0  0  0
    1.4460    0.3480    1.9340 H   0  0  0  0  0  0  0  0  0  0  0  0
   -0.5760   -0.5980   -1.7280 H   0  0  0  0  0  0  0  0  0  0  0  0
   -2.0870   -0.0910    3.1700 H   0  0  0  0  0  0  0  0  0  0  0  0
   -3.8520    0.5190    4.7840 H   0  0  0  0  0  0  0  0  0  0  0  0
   -6.0220    1.3920    3.9860 H   0  0  0  0  0  0  0  0  0  0  0  0
    5.7100   -2.2910   -3.1770 H   0  0  0  0  0  0  0  0  0  0  0  0
    5.8070   -0.5820   -3.6670 H   0  0  0  0  0  0  0  0  0  0  0  0
    4.2930   -1.0390   -5.5540 H   0  0  0  0  0  0  0  0  0  0  0  0
    4.1990   -2.7470   -5.0640 H   0  0  0  0  0  0  0  0  0  0  0  0
    6.6130   -2.9870   -5.4370 H   0  0  0  0  0  0  0  0  0  0  0  0
    6.7070   -1.2780   -5.9260 H   0  0  0  0  0  0  0  0  0  0  0  0
    5.0920   -3.4400   -7.3270 H   0  0  0  0  0  0  0  0  0  0  0  0
    6.6430   -2.7690   -7.8860 H   0  0  0  0  0  0  0  0  0  0  0  0
    5.1980   -1.7330   -7.8190 H   0  0  0  0  0  0  0  0  0  0  0  0
  1  2  1  0  0  0  0
  1  4  1  0  0  0  0
  1  6  2  0  0  0  0
  2  9  1  0  0  0  0
  2 24  1  0  0  0  0
  3  5  1  0  0  0  0
  3  8  2  0  0  0  0
  3 13  1  0  0  0  0
  4  7  2  0  0  0  0
  4 17  1  0  0  0  0
  5 10  2  0  0  0  0
  5 11  1  0  0  0  0
  7 12  1  0  0  0  0
  7 25  1  0  0  0  0
  9 14  2  0  0  0  0
  9 15  1  0  0  0  0
 10 14  1  0  0  0  0
 10 26  1  0  0  0  0
 11 15  2  0  0  0  0
 11 27  1  0  0  0  0
 12 16  1  0  0  0  0
 12 19  2  0  0  0  0
 13 20  1  0  0  0  0
 14 28  1  0  0  0  0
 15 29  1  0  0  0  0
 17 18  2  0  0  0  0
 17 30  1  0  0  0  0
 18 19  1  0  0  0  0
 18 31  1  0  0  0  0
 19 32  1  0  0  0  0
 20 21  1  0  0  0  0
 20 33  1  0  0  0  0
 20 34  1  0  0  0  0
 21 22  1  0  0  0  0
 21 35  1  0  0  0  0
 21 36  1  0  0  0  0
 22 23  1  0  0  0  0
 22 37  1  0  0  0  0
 22 38  1  0  0  0  0
 23 39  1  0  0  0  0
 23 40  1  0  0  0  0
 23 41  1  0  0  0  0
M  END
>  <$CLUSTER>
164

>  <INDEX>
15519

$$$$
Bionet 8H-311S
  MOE2020           3D

 34 35  0  0  0  0  0  0  0  0999 V2000
   -2.3130    0.0020    0.6070 C   0  0  0  0  0  0  0  0  0  0  0  0
   -1.2330   -0.6810    0.0630 N   0  0  0  0  0  0  0  0  0  0  0  0
   -4.5530   -0.2710   -0.9740 S   0  0  0  0  0  0  0  0  0  0  0  0
   -2.3190    1.1090    1.1340 O   0  0  0  0  0  0  0  0  0  0  0  0
   -3.5840   -0.8020    0.4840 C   0  0  0  0  0  0  0  0  0  0  0  0
    0.1130   -0.2500   -0.0060 C   0  0  0  0  0  0  0  0  0  0  0  0
   -3.5100   -0.9350   -2.3020 C   0  0  0  0  0  0  0  0  0  0  0  0
   -2.0170   -1.9360   -4.4450 C   0  0  0  0  0  0  0  0  0  0  0  0
    2.8270    0.4420   -0.2290 C   0  0  0  0  0  0  0  0  0  0  0  0
   -1.3780   -2.4460   -5.4970 F   0  0  0  0  0  0  0  0  0  0  0  0
    0.5730    0.9760    0.4830 C   0  0  0  0  0  0  0  0  0  0  0  0
    1.0300   -1.1250   -0.6080 C   0  0  0  0  0  0  0  0  0  0  0  0
   -2.1220   -0.8420   -2.2900 C   0  0  0  0  0  0  0  0  0  0  0  0
   -4.1560   -1.5100   -3.4030 C   0  0  0  0  0  0  0  0  0  0  0  0
   -1.3750   -1.3470   -3.3580 C   0  0  0  0  0  0  0  0  0  0  0  0
   -3.4070   -2.0150   -4.4690 C   0  0  0  0  0  0  0  0  0  0  0  0
    2.3780   -0.7810   -0.7190 C   0  0  0  0  0  0  0  0  0  0  0  0
    1.9250    1.3180    0.3700 C   0  0  0  0  0  0  0  0  0  0  0  0
    4.1230    0.8960   -0.2760 O   0  0  0  0  0  0  0  0  0  0  0  0
    5.0820    0.0360   -0.8810 C   0  0  0  0  0  0  0  0  0  0  0  0
   -1.4310   -1.5910   -0.3290 H   0  0  0  0  0  0  0  0  0  0  0  0
   -4.1840   -0.6600    1.3830 H   0  0  0  0  0  0  0  0  0  0  0  0
   -3.3300   -1.8570    0.3790 H   0  0  0  0  0  0  0  0  0  0  0  0
   -0.1180    1.6620    0.9500 H   0  0  0  0  0  0  0  0  0  0  0  0
    0.6890   -2.0760   -0.9900 H   0  0  0  0  0  0  0  0  0  0  0  0
   -1.6200   -0.3780   -1.4530 H   0  0  0  0  0  0  0  0  0  0  0  0
   -5.2340   -1.5630   -3.4280 H   0  0  0  0  0  0  0  0  0  0  0  0
   -0.2970   -1.2800   -3.3400 H   0  0  0  0  0  0  0  0  0  0  0  0
   -3.9070   -2.4670   -5.3130 H   0  0  0  0  0  0  0  0  0  0  0  0
    3.0730   -1.4640   -1.1850 H   0  0  0  0  0  0  0  0  0  0  0  0
    2.2720    2.2680    0.7500 H   0  0  0  0  0  0  0  0  0  0  0  0
    6.0630    0.5100   -0.8540 H   0  0  0  0  0  0  0  0  0  0  0  0
    4.7980   -0.1540   -1.9160 H   0  0  0  0  0  0  0  0  0  0  0  0
    5.1190   -0.9070   -0.3360 H   0  0  0  0  0  0  0  0  0  0  0  0
  1  2  1  0  0  0  0
  1  4  2  0  0  0  0
  1  5  1  0  0  0  0
  2  6  1  0  0  0  0
  2 21  1  0  0  0  0
  3  5  1  0  0  0  0
  3  7  1  0  0  0  0
  5 22  1  0  0  0  0
  5 23  1  0  0  0  0
  6 11  1  0  0  0  0
  6 12  2  0  0  0  0
  7 13  2  0  0  0  0
  7 14  1  0  0  0  0
  8 10  1  0  0  0  0
  8 15  2  0  0  0  0
  8 16  1  0  0  0  0
  9 17  2  0  0  0  0
  9 18  1  0  0  0  0
  9 19  1  0  0  0  0
 11 18  2  0  0  0  0
 11 24  1  0  0  0  0
 12 17  1  0  0  0  0
 12 25  1  0  0  0  0
 13 15  1  0  0  0  0
 13 26  1  0  0  0  0
 14 16  2  0  0  0  0
 14 27  1  0  0  0  0
 15 28  1  0  0  0  0
 16 29  1  0  0  0  0
 17 30  1  0  0  0  0
 18 31  1  0  0  0  0
 19 20  1  0  0  0  0
 20 32  1  0  0  0  0
 20 33  1  0  0  0  0
 20 34  1  0  0  0  0
M  END
>  <$CLUSTER>
165

>  <INDEX>
106387

$$$$
Menai H6260
  MOE2020           3D

 49 52  0  0  0  0  0  0  0  0999 V2000
   -0.4530   -0.3010    0.2250 C   0  0  0  0  0  0  0  0  0  0  0  0
    0.3060    1.7410   -1.4520 C   0  0  0  0  0  0  0  0  0  0  0  0
    0.2140   -0.6080   -0.9720 N   0  0  0  0  0  0  0  0  0  0  0  0
   -0.2540    0.9830    0.7630 N   0  0  0  0  0  0  0  0  0  0  0  0
    0.7120    0.3790   -1.8180 C   0  0  0  0  0  0  0  0  0  0  0  0
    0.1630    2.0600   -0.0180 C   0  0  0  0  0  0  0  0  0  0  0  0
    0.1110    2.7230   -2.3450 C   0  0  0  0  0  0  0  0  0  0  0  0
   -0.5360    1.1890    2.1690 C   0  0  0  0  0  0  0  0  0  0  0  0
    0.3690   -1.9990   -1.3450 C   0  0  0  0  0  0  0  0  0  0  0  0
    0.1620    2.6370   -3.8390 C   0  0  0  0  0  0  0  0  0  0  0  0
   -1.2620   -1.0840    0.7290 O   0  0  0  0  0  0  0  0  0  0  0  0
    0.4380    3.1920    0.3790 O   0  0  0  0  0  0  0  0  0  0  0  0
    1.4830    0.2060   -2.7610 O   0  0  0  0  0  0  0  0  0  0  0  0
    0.0640    3.3180   -6.2730 S   0  0  0  0  0  0  0  0  0  0  0  0
   -0.0580    3.7130   -4.6110 C   0  0  0  0  0  0  0  0  0  0  0  0
    0.4140    1.6840   -5.9140 C   0  0  0  0  0  0  0  0  0  0  0  0
    0.4370    1.4460   -4.5560 C   0  0  0  0  0  0  0  0  0  0  0  0
    0.5020   -3.0000   -0.3630 C   0  0  0  0  0  0  0  0  0  0  0  0
   -0.3240    0.1550    3.1020 C   0  0  0  0  0  0  0  0  0  0  0  0
   -1.0180    2.4160    2.6570 C   0  0  0  0  0  0  0  0  0  0  0  0
    0.3990   -2.4000   -2.6930 C   0  0  0  0  0  0  0  0  0  0  0  0
    0.6850   -4.7140   -2.0570 C   0  0  0  0  0  0  0  0  0  0  0  0
   -1.0560    1.5670    4.9200 C   0  0  0  0  0  0  0  0  0  0  0  0
    0.5540   -3.7430   -3.0440 C   0  0  0  0  0  0  0  0  0  0  0  0
   -1.2760    2.6020    4.0180 C   0  0  0  0  0  0  0  0  0  0  0  0
    0.6590   -4.3430   -0.7170 C   0  0  0  0  0  0  0  0  0  0  0  0
   -0.5800    0.3430    4.4620 C   0  0  0  0  0  0  0  0  0  0  0  0
    0.8420   -6.0590   -2.2760 O   0  0  0  0  0  0  0  0  0  0  0  0
   -1.2700    1.6280    6.2740 O   0  0  0  0  0  0  0  0  0  0  0  0
    0.8760   -6.4910   -3.6320 C   0  0  0  0  0  0  0  0  0  0  0  0
   -1.7580    2.8600    6.7930 C   0  0  0  0  0  0  0  0  0  0  0  0
   -0.1100    3.6970   -1.9350 H   0  0  0  0  0  0  0  0  0  0  0  0
   -0.2830    4.6990   -4.2330 H   0  0  0  0  0  0  0  0  0  0  0  0
    0.5960    0.9270   -6.6630 H   0  0  0  0  0  0  0  0  0  0  0  0
    0.6370    0.4860   -4.1020 H   0  0  0  0  0  0  0  0  0  0  0  0
    0.4820   -2.7250    0.6810 H   0  0  0  0  0  0  0  0  0  0  0  0
    0.0430   -0.8010    2.7590 H   0  0  0  0  0  0  0  0  0  0  0  0
   -1.1920    3.2290    1.9680 H   0  0  0  0  0  0  0  0  0  0  0  0
    0.3000   -1.6560   -3.4700 H   0  0  0  0  0  0  0  0  0  0  0  0
    0.5720   -4.0280   -4.0850 H   0  0  0  0  0  0  0  0  0  0  0  0
   -1.6480    3.5530    4.3700 H   0  0  0  0  0  0  0  0  0  0  0  0
    0.7600   -5.0940    0.0520 H   0  0  0  0  0  0  0  0  0  0  0  0
   -0.4080   -0.4640    5.1590 H   0  0  0  0  0  0  0  0  0  0  0  0
    1.0040   -7.5730   -3.6660 H   0  0  0  0  0  0  0  0  0  0  0  0
    1.7090   -6.0100   -4.1460 H   0  0  0  0  0  0  0  0  0  0  0  0
   -0.0590   -6.2200   -4.1230 H   0  0  0  0  0  0  0  0  0  0  0  0
   -1.8840    2.7750    7.8720 H   0  0  0  0  0  0  0  0  0  0  0  0
   -2.7180    3.0930    6.3330 H   0  0  0  0  0  0  0  0  0  0  0  0
   -1.0460    3.6550    6.5720 H   0  0  0  0  0  0  0  0  0  0  0  0
  1  3  1  0  0  0  0
  1  4  1  0  0  0  0
  1 11  2  0  0  0  0
  2  5  1  0  0  0  0
  2  6  1  0  0  0  0
  2  7  2  0  0  0  0
  3  5  1  0  0  0  0
  3  9  1  0  0  0  0
  4  6  1  0  0  0  0
  4  8  1  0  0  0  0
  5 13  2  0  0  0  0
  6 12  2  0  0  0  0
  7 10  1  0  0  0  0
  7 32  1  0  0  0  0
  8 19  1  0  0  0  0
  8 20  2  0  0  0  0
  9 18  1  0  0  0  0
  9 21  2  0  0  0  0
 10 15  2  0  0  0  0
 10 17  1  0  0  0  0
 14 15  1  0  0  0  0
 14 16  1  0  0  0  0
 15 33  1  0  0  0  0
 16 17  2  0  0  0  0
 16 34  1  0  0  0  0
 17 35  1  0  0  0  0
 18 26  2  0  0  0  0
 18 36  1  0  0  0  0
 19 27  2  0  0  0  0
 19 37  1  0  0  0  0
 20 25  1  0  0  0  0
 20 38  1  0  0  0  0
 21 24  1  0  0  0  0
 21 39  1  0  0  0  0
 22 24  2  0  0  0  0
 22 26  1  0  0  0  0
 22 28  1  0  0  0  0
 23 25  2  0  0  0  0
 23 27  1  0  0  0  0
 23 29  1  0  0  0  0
 24 40  1  0  0  0  0
 25 41  1  0  0  0  0
 26 42  1  0  0  0  0
 27 43  1  0  0  0  0
 28 30  1  0  0  0  0
 29 31  1  0  0  0  0
 30 44  1  0  0  0  0
 30 45  1  0  0  0  0
 30 46  1  0  0  0  0
 31 47  1  0  0  0  0
 31 48  1  0  0  0  0
 31 49  1  0  0  0  0
M  END
>  <$CLUSTER>
166

>  <INDEX>
550512

$$$$
Bionet 9J-554S
  MOE2020           3D

 41 43  0  0  0  0  0  0  0  0999 V2000
   -2.0040    0.2120    0.0340 C   0  0  0  0  0  0  0  0  0  0  0  0
   -0.6440    0.6130    0.3390 C   0  0  0  0  0  0  0  0  0  0  0  0
   -0.5810   -1.2520   -0.8500 N   0  0  0  0  0  0  0  0  0  0  0  0
    0.2170   -0.3270   -0.2400 C   0  0  0  0  0  0  0  0  0  0  0  0
   -1.9000   -0.9590   -0.6910 C   0  0  0  0  0  0  0  0  0  0  0  0
   -1.7910   -3.3620   -1.7900 S   0  0  0  0  0  0  0  0  0  0  0  0
    1.6760   -0.4420   -0.2100 C   0  0  0  0  0  0  0  0  0  0  0  0
   -0.2280   -2.4360   -1.5950 C   0  0  0  0  0  0  0  0  0  0  0  0
   -3.2450    0.8940    0.3740 C   0  0  0  0  0  0  0  0  0  0  0  0
   -0.2210    1.7690    1.1190 C   0  0  0  0  0  0  0  0  0  0  0  0
   -2.8270   -1.9160   -1.3200 C   0  0  0  0  0  0  0  0  0  0  0  0
   -1.8650   -4.3410   -0.6540 O   0  0  0  0  0  0  0  0  0  0  0  0
    2.4280   -0.2670   -1.3790 C   0  0  0  0  0  0  0  0  0  0  0  0
   -3.3100    2.0140    0.8630 O   0  0  0  0  0  0  0  0  0  0  0  0
   -0.8780    2.2680    2.0240 O   0  0  0  0  0  0  0  0  0  0  0  0
   -4.3630    0.1760    0.0850 O   0  0  0  0  0  0  0  0  0  0  0  0
    0.9860    2.2700    0.7450 O   0  0  0  0  0  0  0  0  0  0  0  0
    3.8190   -0.3770   -1.3450 C   0  0  0  0  0  0  0  0  0  0  0  0
    2.3360   -0.7270    0.9930 C   0  0  0  0  0  0  0  0  0  0  0  0
    3.7270   -0.8360    1.0240 C   0  0  0  0  0  0  0  0  0  0  0  0
    4.4680   -0.6620   -0.1440 C   0  0  0  0  0  0  0  0  0  0  0  0
    4.6150   -0.1900   -2.5950 C   0  0  0  0  0  0  0  0  0  0  0  0
    1.5000    3.3870    1.4220 C   0  0  0  0  0  0  0  0  0  0  0  0
   -5.6230    0.7270    0.3640 C   0  0  0  0  0  0  0  0  0  0  0  0
    0.5020   -3.0300   -1.0450 H   0  0  0  0  0  0  0  0  0  0  0  0
    0.1810   -2.1670   -2.5690 H   0  0  0  0  0  0  0  0  0  0  0  0
   -3.2890   -1.4750   -2.2030 H   0  0  0  0  0  0  0  0  0  0  0  0
   -3.6030   -2.2150   -0.6150 H   0  0  0  0  0  0  0  0  0  0  0  0
    1.9290   -0.0460   -2.3110 H   0  0  0  0  0  0  0  0  0  0  0  0
    1.7660   -0.8630    1.9000 H   0  0  0  0  0  0  0  0  0  0  0  0
    4.2300   -1.0550    1.9540 H   0  0  0  0  0  0  0  0  0  0  0  0
    5.5440   -0.7480   -0.1190 H   0  0  0  0  0  0  0  0  0  0  0  0
    3.9420    0.0240   -3.4260 H   0  0  0  0  0  0  0  0  0  0  0  0
    5.1770   -1.1000   -2.8070 H   0  0  0  0  0  0  0  0  0  0  0  0
    5.3070    0.6420   -2.4640 H   0  0  0  0  0  0  0  0  0  0  0  0
    2.4680    3.6550    0.9980 H   0  0  0  0  0  0  0  0  0  0  0  0
    1.6200    3.1480    2.4790 H   0  0  0  0  0  0  0  0  0  0  0  0
    0.8120    4.2250    1.3150 H   0  0  0  0  0  0  0  0  0  0  0  0
   -6.4010    0.0220    0.0710 H   0  0  0  0  0  0  0  0  0  0  0  0
   -5.7450    1.6550   -0.1940 H   0  0  0  0  0  0  0  0  0  0  0  0
   -5.7010    0.9320    1.4320 H   0  0  0  0  0  0  0  0  0  0  0  0
  1  2  1  0  0  0  0
  1  5  2  0  0  0  0
  1  9  1  0  0  0  0
  2  4  2  0  0  0  0
  2 10  1  0  0  0  0
  3  4  1  0  0  0  0
  3  5  1  0  0  0  0
  3  8  1  0  0  0  0
  4  7  1  0  0  0  0
  5 11  1  0  0  0  0
  6  8  1  0  0  0  0
  6 11  1  0  0  0  0
  6 12  2  0  0  0  0
  7 13  2  0  0  0  0
  7 19  1  0  0  0  0
  8 25  1  0  0  0  0
  8 26  1  0  0  0  0
  9 14  2  0  0  0  0
  9 16  1  0  0  0  0
 10 15  2  0  0  0  0
 10 17  1  0  0  0  0
 11 27  1  0  0  0  0
 11 28  1  0  0  0  0
 13 18  1  0  0  0  0
 13 29  1  0  0  0  0
 16 24  1  0  0  0  0
 17 23  1  0  0  0  0
 18 21  2  0  0  0  0
 18 22  1  0  0  0  0
 19 20  2  0  0  0  0
 19 30  1  0  0  0  0
 20 21  1  0  0  0  0
 20 31  1  0  0  0  0
 21 32  1  0  0  0  0
 22 33  1  0  0  0  0
 22 34  1  0  0  0  0
 22 35  1  0  0  0  0
 23 36  1  0  0  0  0
 23 37  1  0  0  0  0
 23 38  1  0  0  0  0
 24 39  1  0  0  0  0
 24 40  1  0  0  0  0
 24 41  1  0  0  0  0
M  END
>  <$CLUSTER>
167

>  <INDEX>
111323

$$$$
Biofocus 153_2154_5814_4008
  MOE2020           3D

 35 37  0  0  0  0  0  0  0  0999 V2000
    0.9060   -0.2500    0.0810 C   0  0  0  0  0  0  0  0  0  0  0  0
   -0.2950    0.3530   -0.2690 N   0  0  0  0  0  0  0  0  0  0  0  0
   -1.2570   -0.1060    0.6300 C   0  0  0  0  0  0  0  0  0  0  0  0
   -0.7560   -0.9910    1.4610 N   0  0  0  0  0  0  0  0  0  0  0  0
    0.5690   -1.1060    1.1230 C   0  0  0  0  0  0  0  0  0  0  0  0
    2.2120   -0.0720   -0.5210 C   0  0  0  0  0  0  0  0  0  0  0  0
   -0.6000    1.2420   -1.3040 C   0  0  0  0  0  0  0  0  0  0  0  0
   -2.5810    0.4070    0.5000 C   0  0  0  0  0  0  0  0  0  0  0  0
    2.5480    1.2290   -0.8320 N   0  0  0  0  0  0  0  0  0  0  0  0
   -1.8540    1.7080   -1.4310 C   0  0  0  0  0  0  0  0  0  0  0  0
   -2.8680    1.2780   -0.4850 C   0  0  0  0  0  0  0  0  0  0  0  0
    3.0020   -0.9980   -0.6990 O   0  0  0  0  0  0  0  0  0  0  0  0
    1.4410   -2.0370    1.8760 C   0  0  0  0  0  0  0  0  0  0  0  0
    1.6940    2.4180   -0.6490 C   0  0  0  0  0  0  0  0  0  0  0  0
    3.8620    1.5520   -1.4430 C   0  0  0  0  0  0  0  0  0  0  0  0
   -4.2500    1.8450   -0.6500 C   0  0  0  0  0  0  0  0  0  0  0  0
    2.7940    3.4370   -0.2230 C   0  0  0  0  0  0  0  0  0  0  0  0
    4.1300    2.9010   -0.7130 C   0  0  0  0  0  0  0  0  0  0  0  0
    0.1680    1.5520   -1.9970 H   0  0  0  0  0  0  0  0  0  0  0  0
   -3.3520    0.0970    1.1900 H   0  0  0  0  0  0  0  0  0  0  0  0
   -2.1040    2.3940   -2.2270 H   0  0  0  0  0  0  0  0  0  0  0  0
    2.4520   -1.9960    1.4710 H   0  0  0  0  0  0  0  0  0  0  0  0
    1.0540   -3.0520    1.7840 H   0  0  0  0  0  0  0  0  0  0  0  0
    1.4590   -1.7490    2.9270 H   0  0  0  0  0  0  0  0  0  0  0  0
    0.9480    2.2700    0.1320 H   0  0  0  0  0  0  0  0  0  0  0  0
    1.1980    2.7130   -1.5740 H   0  0  0  0  0  0  0  0  0  0  0  0
    3.7930    1.6760   -2.5240 H   0  0  0  0  0  0  0  0  0  0  0  0
    4.6180    0.8020   -1.2110 H   0  0  0  0  0  0  0  0  0  0  0  0
   -4.2650    2.5250   -1.5020 H   0  0  0  0  0  0  0  0  0  0  0  0
   -4.5300    2.3880    0.2530 H   0  0  0  0  0  0  0  0  0  0  0  0
   -4.9580    1.0340   -0.8200 H   0  0  0  0  0  0  0  0  0  0  0  0
    2.8090    3.5360    0.8620 H   0  0  0  0  0  0  0  0  0  0  0  0
    2.5950    4.4090   -0.6740 H   0  0  0  0  0  0  0  0  0  0  0  0
    4.5840    3.6120   -1.4030 H   0  0  0  0  0  0  0  0  0  0  0  0
    4.7970    2.7390    0.1330 H   0  0  0  0  0  0  0  0  0  0  0  0
  1  2  1  0  0  0  0
  1  5  2  0  0  0  0
  1  6  1  0  0  0  0
  2  3  1  0  0  0  0
  2  7  1  0  0  0  0
  3  4  2  0  0  0  0
  3  8  1  0  0  0  0
  4  5  1  0  0  0  0
  5 13  1  0  0  0  0
  6  9  1  0  0  0  0
  6 12  2  0  0  0  0
  7 10  2  0  0  0  0
  7 19  1  0  0  0  0
  8 11  2  0  0  0  0
  8 20  1  0  0  0  0
  9 14  1  0  0  0  0
  9 15  1  0  0  0  0
 10 11  1  0  0  0  0
 10 21  1  0  0  0  0
 11 16  1  0  0  0  0
 13 22  1  0  0  0  0
 13 23  1  0  0  0  0
 13 24  1  0  0  0  0
 14 17  1  0  0  0  0
 14 25  1  0  0  0  0
 14 26  1  0  0  0  0
 15 18  1  0  0  0  0
 15 27  1  0  0  0  0
 15 28  1  0  0  0  0
 16 29  1  0  0  0  0
 16 30  1  0  0  0  0
 16 31  1  0  0  0  0
 17 18  1  0  0  0  0
 17 32  1  0  0  0  0
 17 33  1  0  0  0  0
 18 34  1  0  0  0  0
 18 35  1  0  0  0  0
M  END
>  <$CLUSTER>
168

>  <INDEX>
14955

$$$$
Bionet 9P-592S
  MOE2020           3D

 37 40  0  0  0  0  0  0  0  0999 V2000
    2.3420    2.6280    0.9080 C   0  0  0  0  0  0  0  0  0  0  0  0
    1.9250    1.3180    0.3700 C   0  0  0  0  0  0  0  0  0  0  0  0
    4.5710    0.7780   -0.4240 S   0  0  0  0  0  0  0  0  0  0  0  0
    3.7420    3.0430    0.8200 C   0  0  0  0  0  0  0  0  0  0  0  0
    2.8270    0.4420   -0.2290 C   0  0  0  0  0  0  0  0  0  0  0  0
    4.7240    2.3310    0.2820 C   0  0  0  0  0  0  0  0  0  0  0  0
   -2.3130    0.0020    0.6070 C   0  0  0  0  0  0  0  0  0  0  0  0
   -1.2330   -0.6810    0.0630 N   0  0  0  0  0  0  0  0  0  0  0  0
   -3.5840   -0.8020    0.4840 C   0  0  0  0  0  0  0  0  0  0  0  0
    0.5730    0.9760    0.4830 C   0  0  0  0  0  0  0  0  0  0  0  0
    1.5270    3.3850    1.4320 O   0  0  0  0  0  0  0  0  0  0  0  0
    0.1130   -0.2500   -0.0060 C   0  0  0  0  0  0  0  0  0  0  0  0
   -2.3190    1.1090    1.1340 O   0  0  0  0  0  0  0  0  0  0  0  0
   -4.6100   -0.4940    1.4290 C   0  0  0  0  0  0  0  0  0  0  0  0
    2.3780   -0.7810   -0.7190 C   0  0  0  0  0  0  0  0  0  0  0  0
   -5.8290   -1.1730    1.3730 C   0  0  0  0  0  0  0  0  0  0  0  0
    1.0300   -1.1250   -0.6080 C   0  0  0  0  0  0  0  0  0  0  0  0
   -7.0550   -0.8380    2.5060 Cl  0  0  0  0  0  0  0  0  0  0  0  0
    4.0440    4.3630    1.3850 C   0  0  0  0  0  0  0  0  0  0  0  0
    6.0640    2.8340    0.2490 C   0  0  0  0  0  0  0  0  0  0  0  0
   -3.8300   -1.7360   -0.4940 C   0  0  0  0  0  0  0  0  0  0  0  0
   -5.0520   -2.4120   -0.5470 C   0  0  0  0  0  0  0  0  0  0  0  0
   -6.0490   -2.1330    0.3870 C   0  0  0  0  0  0  0  0  0  0  0  0
    5.3470    4.8540    1.3540 C   0  0  0  0  0  0  0  0  0  0  0  0
    6.3590    4.0880    0.7840 C   0  0  0  0  0  0  0  0  0  0  0  0
   -1.4310   -1.5910   -0.3290 H   0  0  0  0  0  0  0  0  0  0  0  0
   -0.1180    1.6620    0.9500 H   0  0  0  0  0  0  0  0  0  0  0  0
   -4.4440    0.2610    2.1830 H   0  0  0  0  0  0  0  0  0  0  0  0
    3.0730   -1.4640   -1.1850 H   0  0  0  0  0  0  0  0  0  0  0  0
    0.6890   -2.0760   -0.9900 H   0  0  0  0  0  0  0  0  0  0  0  0
    3.2550    4.9550    1.8250 H   0  0  0  0  0  0  0  0  0  0  0  0
    6.8500    2.2400   -0.1920 H   0  0  0  0  0  0  0  0  0  0  0  0
   -3.0700   -1.9500   -1.2300 H   0  0  0  0  0  0  0  0  0  0  0  0
   -5.2250   -3.1530   -1.3140 H   0  0  0  0  0  0  0  0  0  0  0  0
   -6.9910   -2.6600    0.3460 H   0  0  0  0  0  0  0  0  0  0  0  0
    5.5710    5.8250    1.7710 H   0  0  0  0  0  0  0  0  0  0  0  0
    7.3710    4.4640    0.7560 H   0  0  0  0  0  0  0  0  0  0  0  0
  1  2  1  0  0  0  0
  1  4  1  0  0  0  0
  1 11  2  0  0  0  0
  2  5  1  0  0  0  0
  2 10  2  0  0  0  0
  3  5  1  0  0  0  0
  3  6  1  0  0  0  0
  4  6  2  0  0  0  0
  4 19  1  0  0  0  0
  5 15  2  0  0  0  0
  6 20  1  0  0  0  0
  7  8  1  0  0  0  0
  7  9  1  0  0  0  0
  7 13  2  0  0  0  0
  8 12  1  0  0  0  0
  8 26  1  0  0  0  0
  9 14  2  0  0  0  0
  9 21  1  0  0  0  0
 10 12  1  0  0  0  0
 10 27  1  0  0  0  0
 12 17  2  0  0  0  0
 14 16  1  0  0  0  0
 14 28  1  0  0  0  0
 15 17  1  0  0  0  0
 15 29  1  0  0  0  0
 16 18  1  0  0  0  0
 16 23  2  0  0  0  0
 17 30  1  0  0  0  0
 19 24  2  0  0  0  0
 19 31  1  0  0  0  0
 20 25  2  0  0  0  0
 20 32  1  0  0  0  0
 21 22  2  0  0  0  0
 21 33  1  0  0  0  0
 22 23  1  0  0  0  0
 22 34  1  0  0  0  0
 23 35  1  0  0  0  0
 24 25  1  0  0  0  0
 24 36  1  0  0  0  0
 25 37  1  0  0  0  0
M  END
>  <$CLUSTER>
169

>  <INDEX>
111815

$$$$
Enamine T0509-8556
  MOE2020           3D

 47 49  0  0  1  0  0  0  0  0999 V2000
   -0.5150   -0.7020    0.5580 C   0  0  0  0  0  0  0  0  0  0  0  0
    0.2380    0.4410    0.4670 N   0  0  0  0  0  0  0  0  0  0  0  0
    1.1090    0.5460   -0.5980 C   0  0  0  0  0  0  0  0  0  0  0  0
   -0.1670   -1.7890   -0.7530 S   0  0  0  0  0  0  0  0  0  0  0  0
    1.0900   -0.6910   -1.4790 C   0  0  3  0  0  0  0  0  0  0  0  0
   -1.3610   -0.8890    1.5140 N   0  0  0  0  0  0  0  0  0  0  0  0
    0.7380   -0.3470   -2.9210 C   0  0  0  0  0  0  0  0  0  0  0  0
    0.8410   -1.5210   -3.8870 C   0  0  0  0  0  0  0  0  0  0  0  0
   -2.3160   -4.4220    2.1890 C   0  0  0  0  0  0  0  0  0  0  0  0
   -1.5990   -3.2240    2.1920 C   0  0  0  0  0  0  0  0  0  0  0  0
   -2.1360   -2.1360    1.5460 C   0  0  0  0  0  0  0  0  0  0  0  0
    0.5210   -1.1890   -5.1650 N   0  0  0  0  0  0  0  0  0  0  0  0
    1.8250    1.5190   -0.8260 O   0  0  0  0  0  0  0  0  0  0  0  0
   -3.5380   -4.5020    1.5200 C   0  0  0  0  0  0  0  0  0  0  0  0
    1.1830   -2.6460   -3.5200 O   0  0  0  0  0  0  0  0  0  0  0  0
    0.1270    1.5220    1.4440 C   0  0  0  0  0  0  0  0  0  0  0  0
   -4.0450   -3.3820    0.8590 C   0  0  0  0  0  0  0  0  0  0  0  0
   -1.6860   -5.7770    3.0040 Cl  0  0  0  0  0  0  0  0  0  0  0  0
   -3.3270   -2.1840    0.8640 C   0  0  0  0  0  0  0  0  0  0  0  0
   -4.2820   -5.6070    1.4640 F   0  0  0  0  0  0  0  0  0  0  0  0
    0.4910   -1.9720   -6.3380 C   0  0  0  0  0  0  0  0  0  0  0  0
    0.1160   -1.3560   -7.5410 C   0  0  0  0  0  0  0  0  0  0  0  0
    0.8180   -3.3320   -6.3510 C   0  0  0  0  0  0  0  0  0  0  0  0
   -0.9480    2.5260    1.0490 C   0  0  0  0  0  0  0  0  0  0  0  0
   -1.0610    3.6550    2.0510 C   0  0  0  0  0  0  0  0  0  0  0  0
    0.7710   -4.0580   -7.5450 C   0  0  0  0  0  0  0  0  0  0  0  0
    0.0690   -2.0840   -8.7330 C   0  0  0  0  0  0  0  0  0  0  0  0
    0.3970   -3.4370   -8.7330 C   0  0  0  0  0  0  0  0  0  0  0  0
    2.0720   -1.1630   -1.5140 H   0  0  0  0  0  0  0  0  0  0  0  0
    1.4160    0.4360   -3.2610 H   0  0  0  0  0  0  0  0  0  0  0  0
   -0.2860    0.0250   -2.9430 H   0  0  0  0  0  0  0  0  0  0  0  0
   -0.6440   -3.1540    2.6910 H   0  0  0  0  0  0  0  0  0  0  0  0
    0.2620   -0.2220   -5.2970 H   0  0  0  0  0  0  0  0  0  0  0  0
    1.0850    2.0380    1.5120 H   0  0  0  0  0  0  0  0  0  0  0  0
   -0.1260    1.0970    2.4150 H   0  0  0  0  0  0  0  0  0  0  0  0
   -4.9920   -3.4420    0.3440 H   0  0  0  0  0  0  0  0  0  0  0  0
   -3.7000   -1.3150    0.3430 H   0  0  0  0  0  0  0  0  0  0  0  0
   -0.1390   -0.3070   -7.5460 H   0  0  0  0  0  0  0  0  0  0  0  0
    1.1080   -3.8240   -5.4340 H   0  0  0  0  0  0  0  0  0  0  0  0
   -1.9070    2.0110    0.9890 H   0  0  0  0  0  0  0  0  0  0  0  0
   -0.6990    2.9440    0.0740 H   0  0  0  0  0  0  0  0  0  0  0  0
   -1.3100    3.2480    3.0310 H   0  0  0  0  0  0  0  0  0  0  0  0
   -1.8430    4.3450    1.7340 H   0  0  0  0  0  0  0  0  0  0  0  0
   -0.1110    4.1860    2.1090 H   0  0  0  0  0  0  0  0  0  0  0  0
    1.0270   -5.1070   -7.5450 H   0  0  0  0  0  0  0  0  0  0  0  0
   -0.2210   -1.5980   -9.6530 H   0  0  0  0  0  0  0  0  0  0  0  0
    0.3610   -4.0030   -9.6520 H   0  0  0  0  0  0  0  0  0  0  0  0
  1  2  1  0  0  0  0
  1  4  1  0  0  0  0
  1  6  2  0  0  0  0
  2  3  1  0  0  0  0
  2 16  1  0  0  0  0
  3  5  1  0  0  0  0
  3 13  2  0  0  0  0
  4  5  1  0  0  0  0
  5  7  1  0  0  0  0
  5 29  1  0  0  0  0
  6 11  1  0  0  0  0
  7  8  1  0  0  0  0
  7 30  1  0  0  0  0
  7 31  1  0  0  0  0
  8 12  1  0  0  0  0
  8 15  2  0  0  0  0
  9 10  2  0  0  0  0
  9 14  1  0  0  0  0
  9 18  1  0  0  0  0
 10 11  1  0  0  0  0
 10 32  1  0  0  0  0
 11 19  2  0  0  0  0
 12 21  1  0  0  0  0
 12 33  1  0  0  0  0
 14 17  2  0  0  0  0
 14 20  1  0  0  0  0
 16 24  1  0  0  0  0
 16 34  1  0  0  0  0
 16 35  1  0  0  0  0
 17 19  1  0  0  0  0
 17 36  1  0  0  0  0
 19 37  1  0  0  0  0
 21 22  1  0  0  0  0
 21 23  2  0  0  0  0
 22 27  2  0  0  0  0
 22 38  1  0  0  0  0
 23 26  1  0  0  0  0
 23 39  1  0  0  0  0
 24 25  1  0  0  0  0
 24 40  1  0  0  0  0
 24 41  1  0  0  0  0
 25 42  1  0  0  0  0
 25 43  1  0  0  0  0
 25 44  1  0  0  0  0
 26 28  2  0  0  0  0
 26 45  1  0  0  0  0
 27 28  1  0  0  0  0
 27 46  1  0  0  0  0
 28 47  1  0  0  0  0
M  END
>  <$CLUSTER>
170

>  <INDEX>
421502

$$$$
TimTec ST5008865
  MOE2020           3D

 54 57  0  0  1  0  0  0  0  0999 V2000
    1.3690    0.1850   -0.4550 C   0  0  0  0  0  0  0  0  0  0  0  0
    0.1420    0.6080   -2.3320 N   0  0  0  0  0  0  0  0  0  0  0  0
    2.2050    0.7530   -1.3350 C   0  0  0  0  0  0  0  0  0  0  0  0
    1.4380    1.0330   -2.5680 C   0  0  0  0  0  0  0  0  0  0  0  0
   -0.0350    0.0620   -0.9890 C   0  0  3  0  0  0  0  0  0  0  0  0
    1.7940   -0.1970    0.9030 C   0  0  0  0  0  0  0  0  0  0  0  0
   -1.0800    0.8090   -0.1760 C   0  0  0  0  0  0  0  0  0  0  0  0
   -0.9300    0.6510   -3.3210 C   0  0  0  0  0  0  0  0  0  0  0  0
    1.9150    1.5330   -3.5740 O   0  0  0  0  0  0  0  0  0  0  0  0
    1.0200   -1.2210    1.6160 C   0  0  0  0  0  0  0  0  0  0  0  0
   -2.2610    0.2000    0.2910 C   0  0  0  0  0  0  0  0  0  0  0  0
    2.7460    0.3260    1.4700 O   0  0  0  0  0  0  0  0  0  0  0  0
    3.5260    1.0540   -1.2240 O   0  0  0  0  0  0  0  0  0  0  0  0
    0.5060   -0.9180    2.8780 C   0  0  0  0  0  0  0  0  0  0  0  0
    0.8410   -2.4880    1.0580 C   0  0  0  0  0  0  0  0  0  0  0  0
   -1.1740   -0.7110   -3.9480 C   0  0  0  0  0  0  0  0  0  0  0  0
   -2.6460   -1.4540   -0.0370 Cl  0  0  0  0  0  0  0  0  0  0  0  0
   -0.4160   -3.1480    3.0150 C   0  0  0  0  0  0  0  0  0  0  0  0
    0.1170   -3.4510    1.7620 C   0  0  0  0  0  0  0  0  0  0  0  0
   -0.2200   -1.8840    3.5740 C   0  0  0  0  0  0  0  0  0  0  0  0
   -0.8840    2.1720    0.1270 C   0  0  0  0  0  0  0  0  0  0  0  0
   -2.2780   -0.6720   -4.9800 C   0  0  0  0  0  0  0  0  0  0  0  0
   -1.1070   -4.1860    3.6100 O   0  0  0  0  0  0  0  0  0  0  0  0
   -3.1920    0.9260    1.0460 C   0  0  0  0  0  0  0  0  0  0  0  0
   -3.6080   -0.8860   -4.6010 C   0  0  0  0  0  0  0  0  0  0  0  0
   -1.9840   -0.3850   -6.3190 C   0  0  0  0  0  0  0  0  0  0  0  0
   -1.6680   -3.9340    4.8940 C   0  0  0  0  0  0  0  0  0  0  0  0
   -1.8140    2.8930    0.8780 C   0  0  0  0  0  0  0  0  0  0  0  0
   -2.9670    2.2680    1.3400 C   0  0  0  0  0  0  0  0  0  0  0  0
   -4.6290   -0.8290   -5.5520 C   0  0  0  0  0  0  0  0  0  0  0  0
   -3.0070   -0.3290   -7.2670 C   0  0  0  0  0  0  0  0  0  0  0  0
   -4.3280   -0.5520   -6.8840 C   0  0  0  0  0  0  0  0  0  0  0  0
   -0.4270   -0.9540   -0.9560 H   0  0  0  0  0  0  0  0  0  0  0  0
   -0.6580    1.3570   -4.1060 H   0  0  0  0  0  0  0  0  0  0  0  0
   -1.8460    0.9840   -2.8340 H   0  0  0  0  0  0  0  0  0  0  0  0
    3.9250    0.8240   -0.3820 H   0  0  0  0  0  0  0  0  0  0  0  0
    0.6690    0.0570    3.3120 H   0  0  0  0  0  0  0  0  0  0  0  0
    1.2590   -2.7210    0.0900 H   0  0  0  0  0  0  0  0  0  0  0  0
   -1.4510   -1.4150   -3.1630 H   0  0  0  0  0  0  0  0  0  0  0  0
   -0.2550   -1.0460   -4.4290 H   0  0  0  0  0  0  0  0  0  0  0  0
   -0.0310   -4.4320    1.3360 H   0  0  0  0  0  0  0  0  0  0  0  0
   -0.6310   -1.6540    4.5460 H   0  0  0  0  0  0  0  0  0  0  0  0
    0.0060    2.6690   -0.2300 H   0  0  0  0  0  0  0  0  0  0  0  0
   -4.0890    0.4420    1.4020 H   0  0  0  0  0  0  0  0  0  0  0  0
   -3.8460   -1.0960   -3.5690 H   0  0  0  0  0  0  0  0  0  0  0  0
   -0.9620   -0.2060   -6.6190 H   0  0  0  0  0  0  0  0  0  0  0  0
   -2.1820   -4.8280    5.2480 H   0  0  0  0  0  0  0  0  0  0  0  0
   -2.3780   -3.1100    4.8250 H   0  0  0  0  0  0  0  0  0  0  0  0
   -0.8730   -3.6710    5.5920 H   0  0  0  0  0  0  0  0  0  0  0  0
   -1.6380    3.9350    1.1000 H   0  0  0  0  0  0  0  0  0  0  0  0
   -3.6860    2.8220    1.9250 H   0  0  0  0  0  0  0  0  0  0  0  0
   -5.6530   -1.0000   -5.2550 H   0  0  0  0  0  0  0  0  0  0  0  0
   -2.7740   -0.1120   -8.2990 H   0  0  0  0  0  0  0  0  0  0  0  0
   -5.1180   -0.5100   -7.6190 H   0  0  0  0  0  0  0  0  0  0  0  0
  1  3  2  0  0  0  0
  1  5  1  0  0  0  0
  1  6  1  0  0  0  0
  2  4  1  0  0  0  0
  2  5  1  0  0  0  0
  2  8  1  0  0  0  0
  3  4  1  0  0  0  0
  3 13  1  0  0  0  0
  4  9  2  0  0  0  0
  5  7  1  0  0  0  0
  5 33  1  0  0  0  0
  6 10  1  0  0  0  0
  6 12  2  0  0  0  0
  7 11  2  0  0  0  0
  7 21  1  0  0  0  0
  8 16  1  0  0  0  0
  8 34  1  0  0  0  0
  8 35  1  0  0  0  0
 10 14  1  0  0  0  0
 10 15  2  0  0  0  0
 11 17  1  0  0  0  0
 11 24  1  0  0  0  0
 13 36  1  0  0  0  0
 14 20  2  0  0  0  0
 14 37  1  0  0  0  0
 15 19  1  0  0  0  0
 15 38  1  0  0  0  0
 16 22  1  0  0  0  0
 16 39  1  0  0  0  0
 16 40  1  0  0  0  0
 18 19  2  0  0  0  0
 18 20  1  0  0  0  0
 18 23  1  0  0  0  0
 19 41  1  0  0  0  0
 20 42  1  0  0  0  0
 21 28  2  0  0  0  0
 21 43  1  0  0  0  0
 22 25  2  0  0  0  0
 22 26  1  0  0  0  0
 23 27  1  0  0  0  0
 24 29  2  0  0  0  0
 24 44  1  0  0  0  0
 25 30  1  0  0  0  0
 25 45  1  0  0  0  0
 26 31  2  0  0  0  0
 26 46  1  0  0  0  0
 27 47  1  0  0  0  0
 27 48  1  0  0  0  0
 27 49  1  0  0  0  0
 28 29  1  0  0  0  0
 28 50  1  0  0  0  0
 29 51  1  0  0  0  0
 30 32  2  0  0  0  0
 30 52  1  0  0  0  0
 31 32  1  0  0  0  0
 31 53  1  0  0  0  0
 32 54  1  0  0  0  0
M  END
>  <$CLUSTER>
171

>  <INDEX>
644163

$$$$
Chemdiv 4286-0269
  MOE2020           3D

 25 25  0  0  0  0  0  0  0  0999 V2000
    1.1250    0.6690   -0.5420 C   0  0  0  0  0  0  0  0  0  0  0  0
    0.0950   -0.0060    0.0070 C   0  0  0  0  0  0  0  0  0  0  0  0
    1.9080    0.1640   -1.7270 C   0  0  0  0  0  0  0  0  0  0  0  0
    1.6130    1.9980   -0.0250 C   0  0  0  0  0  0  0  0  0  0  0  0
    1.9030    2.9770    0.4240 N   0  0  0  0  0  0  0  0  0  0  0  0
   -0.4200   -1.2330   -0.3760 N   0  0  0  0  0  0  0  0  0  0  0  0
    1.5870   -0.9510   -2.2500 O   0  0  0  0  0  0  0  0  0  0  0  0
    2.8620    0.9250   -2.1290 O   0  0  0  0  0  0  0  0  0  0  0  0
   -0.7500    0.4700    1.1830 C   0  0  0  0  0  0  0  0  0  0  0  0
   -1.5540   -1.6830    0.4130 C   0  0  0  0  0  0  0  0  0  0  0  0
    3.6510    0.5310   -3.2390 C   0  0  0  0  0  0  0  0  0  0  0  0
   -2.0170   -0.3800    1.0670 C   0  0  0  0  0  0  0  0  0  0  0  0
    4.7060    1.5820   -3.5150 C   0  0  0  0  0  0  0  0  0  0  0  0
   -0.0390   -1.7710   -1.1410 H   0  0  0  0  0  0  0  0  0  0  0  0
   -0.2410    0.2870    2.1300 H   0  0  0  0  0  0  0  0  0  0  0  0
   -0.9810    1.5310    1.0940 H   0  0  0  0  0  0  0  0  0  0  0  0
   -2.3330   -2.1090   -0.2190 H   0  0  0  0  0  0  0  0  0  0  0  0
   -1.2510   -2.4170    1.1600 H   0  0  0  0  0  0  0  0  0  0  0  0
    4.1360   -0.4200   -3.0190 H   0  0  0  0  0  0  0  0  0  0  0  0
    3.0130    0.4190   -4.1160 H   0  0  0  0  0  0  0  0  0  0  0  0
   -2.7590    0.1200    0.4440 H   0  0  0  0  0  0  0  0  0  0  0  0
   -2.4410   -0.5740    2.0520 H   0  0  0  0  0  0  0  0  0  0  0  0
    5.3450    1.6940   -2.6390 H   0  0  0  0  0  0  0  0  0  0  0  0
    4.2220    2.5330   -3.7360 H   0  0  0  0  0  0  0  0  0  0  0  0
    5.3100    1.2750   -4.3680 H   0  0  0  0  0  0  0  0  0  0  0  0
  1  2  2  0  0  0  0
  1  3  1  0  0  0  0
  1  4  1  0  0  0  0
  2  6  1  0  0  0  0
  2  9  1  0  0  0  0
  3  7  2  0  0  0  0
  3  8  1  0  0  0  0
  4  5  3  0  0  0  0
  6 10  1  0  0  0  0
  6 14  1  0  0  0  0
  8 11  1  0  0  0  0
  9 12  1  0  0  0  0
  9 15  1  0  0  0  0
  9 16  1  0  0  0  0
 10 12  1  0  0  0  0
 10 17  1  0  0  0  0
 10 18  1  0  0  0  0
 11 13  1  0  0  0  0
 11 19  1  0  0  0  0
 11 20  1  0  0  0  0
 12 21  1  0  0  0  0
 12 22  1  0  0  0  0
 13 23  1  0  0  0  0
 13 24  1  0  0  0  0
 13 25  1  0  0  0  0
M  END
>  <$CLUSTER>
172

>  <INDEX>
33278

$$$$
Princeton Biomolecular OSSK_562187
  MOE2020           3D

 55 57  0  0  0  0  0  0  0  0999 V2000
    1.2360   -2.3810   -0.2340 C   0  0  0  0  0  0  0  0  0  0  0  0
    2.5020   -2.4980    0.2290 N   0  0  0  0  0  0  0  0  0  0  0  0
    3.1800   -3.5890   -0.1660 C   0  0  0  0  0  0  0  0  0  0  0  0
    0.6890   -3.3140   -1.0470 N   0  0  0  0  0  0  0  0  0  0  0  0
    2.7300   -4.5610   -0.9630 N   0  0  0  0  0  0  0  0  0  0  0  0
    1.4740   -4.3570   -1.3670 C   0  0  0  0  0  0  0  0  0  0  0  0
    0.5200   -1.3370    0.1160 N   0  0  0  0  0  0  0  0  0  0  0  0
    4.5060   -3.6420    0.2820 O   0  0  0  0  0  0  0  0  0  0  0  0
    4.1680   -5.8150    1.1770 N   0  0  0  0  0  0  0  0  0  0  0  0
    4.6750   -7.0190    1.5540 N   0  0  0  0  0  0  0  0  0  0  0  0
    4.9940   -4.8940    0.6260 C   0  0  0  0  0  0  0  0  0  0  0  0
    5.9920   -7.2600    1.3860 C   0  0  0  0  0  0  0  0  0  0  0  0
    0.8690   -5.3230   -2.2270 N   0  0  0  0  0  0  0  0  0  0  0  0
   -0.5200    1.3080   -0.0980 O   0  0  0  0  0  0  0  0  0  0  0  0
    6.3500   -5.1080    0.4610 C   0  0  0  0  0  0  0  0  0  0  0  0
    6.8630   -6.3340    0.8480 C   0  0  0  0  0  0  0  0  0  0  0  0
    6.5440   -8.4750    1.7700 O   0  0  0  0  0  0  0  0  0  0  0  0
   -0.8580   -1.0850   -0.3100 C   0  0  0  0  0  0  0  0  0  0  0  0
    0.9850   -0.2560    0.9880 C   0  0  0  0  0  0  0  0  0  0  0  0
    0.8390    1.0910    0.2880 C   0  0  0  0  0  0  0  0  0  0  0  0
   -0.9660    0.2790   -0.9830 C   0  0  0  0  0  0  0  0  0  0  0  0
    1.5920   -6.5010   -2.6570 C   0  0  0  0  0  0  0  0  0  0  0  0
    5.6010   -9.3940    2.3260 C   0  0  0  0  0  0  0  0  0  0  0  0
    0.7110   -7.3490   -3.5590 C   0  0  0  0  0  0  0  0  0  0  0  0
    6.3450  -10.6650    2.6910 C   0  0  0  0  0  0  0  0  0  0  0  0
    1.4460   -8.6000   -4.0410 C   0  0  0  0  0  0  0  0  0  0  0  0
    0.5660   -9.4500   -4.9440 C   0  0  0  0  0  0  0  0  0  0  0  0
    5.4080  -11.7050    3.2950 C   0  0  0  0  0  0  0  0  0  0  0  0
   -0.0810   -5.1820   -2.5410 H   0  0  0  0  0  0  0  0  0  0  0  0
    6.9880   -4.3430    0.0440 H   0  0  0  0  0  0  0  0  0  0  0  0
    7.9130   -6.5590    0.7330 H   0  0  0  0  0  0  0  0  0  0  0  0
   -1.5130   -1.1090    0.5610 H   0  0  0  0  0  0  0  0  0  0  0  0
   -1.1630   -1.8580   -1.0150 H   0  0  0  0  0  0  0  0  0  0  0  0
    2.0340   -0.4200    1.2360 H   0  0  0  0  0  0  0  0  0  0  0  0
    0.3920   -0.2520    1.9020 H   0  0  0  0  0  0  0  0  0  0  0  0
    1.1500    1.8840    0.9680 H   0  0  0  0  0  0  0  0  0  0  0  0
    1.4710    1.1050   -0.6000 H   0  0  0  0  0  0  0  0  0  0  0  0
   -0.3490    0.2860   -1.8820 H   0  0  0  0  0  0  0  0  0  0  0  0
   -2.0050    0.4640   -1.2540 H   0  0  0  0  0  0  0  0  0  0  0  0
    1.8830   -7.0850   -1.7840 H   0  0  0  0  0  0  0  0  0  0  0  0
    2.4840   -6.1970   -3.2050 H   0  0  0  0  0  0  0  0  0  0  0  0
    4.8250   -9.6170    1.5930 H   0  0  0  0  0  0  0  0  0  0  0  0
    5.1460   -8.9630    3.2180 H   0  0  0  0  0  0  0  0  0  0  0  0
    0.4150   -6.7560   -4.4240 H   0  0  0  0  0  0  0  0  0  0  0  0
   -0.1770   -7.6510   -3.0040 H   0  0  0  0  0  0  0  0  0  0  0  0
    7.1230  -10.4250    3.4160 H   0  0  0  0  0  0  0  0  0  0  0  0
    6.8020  -11.0790    1.7920 H   0  0  0  0  0  0  0  0  0  0  0  0
    1.7420   -9.1920   -3.1750 H   0  0  0  0  0  0  0  0  0  0  0  0
    2.3340   -8.2970   -4.5950 H   0  0  0  0  0  0  0  0  0  0  0  0
   -0.3260   -9.7570   -4.3980 H   0  0  0  0  0  0  0  0  0  0  0  0
    1.1190  -10.3330   -5.2630 H   0  0  0  0  0  0  0  0  0  0  0  0
    0.2740   -8.8690   -5.8180 H   0  0  0  0  0  0  0  0  0  0  0  0
    4.9460  -11.2990    4.1950 H   0  0  0  0  0  0  0  0  0  0  0  0
    5.9750  -12.6010    3.5500 H   0  0  0  0  0  0  0  0  0  0  0  0
    4.6330  -11.9590    2.5720 H   0  0  0  0  0  0  0  0  0  0  0  0
  1  2  2  0  0  0  0
  1  4  1  0  0  0  0
  1  7  1  0  0  0  0
  2  3  1  0  0  0  0
  3  5  2  0  0  0  0
  3  8  1  0  0  0  0
  4  6  2  0  0  0  0
  5  6  1  0  0  0  0
  6 13  1  0  0  0  0
  7 18  1  0  0  0  0
  7 19  1  0  0  0  0
  8 11  1  0  0  0  0
  9 10  2  0  0  0  0
  9 11  1  0  0  0  0
 10 12  1  0  0  0  0
 11 15  2  0  0  0  0
 12 16  2  0  0  0  0
 12 17  1  0  0  0  0
 13 22  1  0  0  0  0
 13 29  1  0  0  0  0
 14 20  1  0  0  0  0
 14 21  1  0  0  0  0
 15 16  1  0  0  0  0
 15 30  1  0  0  0  0
 16 31  1  0  0  0  0
 17 23  1  0  0  0  0
 18 21  1  0  0  0  0
 18 32  1  0  0  0  0
 18 33  1  0  0  0  0
 19 20  1  0  0  0  0
 19 34  1  0  0  0  0
 19 35  1  0  0  0  0
 20 36  1  0  0  0  0
 20 37  1  0  0  0  0
 21 38  1  0  0  0  0
 21 39  1  0  0  0  0
 22 24  1  0  0  0  0
 22 40  1  0  0  0  0
 22 41  1  0  0  0  0
 23 25  1  0  0  0  0
 23 42  1  0  0  0  0
 23 43  1  0  0  0  0
 24 26  1  0  0  0  0
 24 44  1  0  0  0  0
 24 45  1  0  0  0  0
 25 28  1  0  0  0  0
 25 46  1  0  0  0  0
 25 47  1  0  0  0  0
 26 27  1  0  0  0  0
 26 48  1  0  0  0  0
 26 49  1  0  0  0  0
 27 50  1  0  0  0  0
 27 51  1  0  0  0  0
 27 52  1  0  0  0  0
 28 53  1  0  0  0  0
 28 54  1  0  0  0  0
 28 55  1  0  0  0  0
M  END
>  <$CLUSTER>
173

>  <INDEX>
589636

$$$$
Chemical Block A3393/0143990
  MOE2020           3D

 59 61  0  0  1  0  0  0  0  0999 V2000
   -0.0360   -0.3400    0.5420 C   0  0  0  0  0  0  0  0  0  0  0  0
    0.7230    0.5440   -1.3800 C   0  0  0  0  0  0  0  0  0  0  0  0
    1.0830   -0.2940   -0.3390 C   0  0  0  0  0  0  0  0  0  0  0  0
   -1.0180    0.4690    0.0100 C   0  0  0  0  0  0  0  0  0  0  0  0
   -0.5520    0.9990   -1.1590 N   0  0  0  0  0  0  0  0  0  0  0  0
   -0.2550   -1.0400    1.7970 C   0  0  0  0  0  0  0  0  0  0  0  0
    1.5100    0.9340   -2.5570 C   0  0  0  0  0  0  0  0  0  0  0  0
   -0.6100    3.6880    4.3750 C   0  0  0  0  0  0  0  0  0  0  0  0
   -1.7210    1.5770    2.9020 C   0  0  0  0  0  0  0  0  0  0  0  0
   -2.3510    0.4290    2.1020 C   0  0  3  0  0  0  0  0  0  0  0  0
   -1.9400    3.3270    4.5680 C   0  0  0  0  0  0  0  0  0  0  0  0
    0.1690    2.9990    3.4500 C   0  0  0  0  0  0  0  0  0  0  0  0
   -2.3620    0.7340    0.5870 C   0  0  0  0  0  0  0  0  0  0  0  0
   -1.6500   -0.9130    2.4120 C   0  0  0  0  0  0  0  0  0  0  0  0
   -2.4930    2.2780    3.8330 C   0  0  0  0  0  0  0  0  0  0  0  0
   -0.3830    1.9500    2.7140 C   0  0  0  0  0  0  0  0  0  0  0  0
    0.8040    1.7790   -3.3560 O   0  0  0  0  0  0  0  0  0  0  0  0
    0.6060   -1.7450    2.3140 O   0  0  0  0  0  0  0  0  0  0  0  0
    2.6480    0.5710   -2.8220 O   0  0  0  0  0  0  0  0  0  0  0  0
    2.3790   -0.9990   -0.1830 C   0  0  0  0  0  0  0  0  0  0  0  0
   -0.0670    4.7470    5.0870 O   0  0  0  0  0  0  0  0  0  0  0  0
   -2.6600    4.0920    5.5080 O   0  0  0  0  0  0  0  0  0  0  0  0
    1.4970    3.4460    3.3020 O   0  0  0  0  0  0  0  0  0  0  0  0
    1.4300    2.2540   -4.5490 C   0  0  0  0  0  0  0  0  0  0  0  0
    0.4720    3.1750   -5.2780 C   0  0  0  0  0  0  0  0  0  0  0  0
    0.5090    4.2660    6.3120 C   0  0  0  0  0  0  0  0  0  0  0  0
    2.3040    2.7840    2.3200 C   0  0  0  0  0  0  0  0  0  0  0  0
   -4.0440    3.7710    5.6890 C   0  0  0  0  0  0  0  0  0  0  0  0
    1.1660    3.8050   -6.4970 C   0  0  0  0  0  0  0  0  0  0  0  0
   -0.7980    2.4460   -5.7260 C   0  0  0  0  0  0  0  0  0  0  0  0
   -1.0640    1.6250   -1.7640 H   0  0  0  0  0  0  0  0  0  0  0  0
   -3.3910    0.3350    2.4150 H   0  0  0  0  0  0  0  0  0  0  0  0
   -3.0990    0.0990    0.0950 H   0  0  0  0  0  0  0  0  0  0  0  0
   -2.6230    1.7810    0.4310 H   0  0  0  0  0  0  0  0  0  0  0  0
   -1.5580   -1.0110    3.4940 H   0  0  0  0  0  0  0  0  0  0  0  0
   -2.2700   -1.7220    2.0260 H   0  0  0  0  0  0  0  0  0  0  0  0
   -3.5270    2.0050    3.9850 H   0  0  0  0  0  0  0  0  0  0  0  0
    0.2250    1.4220    1.9940 H   0  0  0  0  0  0  0  0  0  0  0  0
    2.3660   -1.5850    0.7360 H   0  0  0  0  0  0  0  0  0  0  0  0
    3.1870   -0.2690   -0.1370 H   0  0  0  0  0  0  0  0  0  0  0  0
    2.5370   -1.6620   -1.0340 H   0  0  0  0  0  0  0  0  0  0  0  0
    1.6830    1.4090   -5.1900 H   0  0  0  0  0  0  0  0  0  0  0  0
    2.3380    2.8000   -4.2920 H   0  0  0  0  0  0  0  0  0  0  0  0
    0.1770    3.9560   -4.5770 H   0  0  0  0  0  0  0  0  0  0  0  0
    0.9340    5.1030    6.8670 H   0  0  0  0  0  0  0  0  0  0  0  0
    1.2940    3.5440    6.0860 H   0  0  0  0  0  0  0  0  0  0  0  0
   -0.2640    3.7860    6.9130 H   0  0  0  0  0  0  0  0  0  0  0  0
    3.3000    3.2260    2.3110 H   0  0  0  0  0  0  0  0  0  0  0  0
    1.8470    2.8980    1.3370 H   0  0  0  0  0  0  0  0  0  0  0  0
    2.3790    1.7250    2.5650 H   0  0  0  0  0  0  0  0  0  0  0  0
   -4.4760    4.4340    6.4380 H   0  0  0  0  0  0  0  0  0  0  0  0
   -4.1370    2.7370    6.0220 H   0  0  0  0  0  0  0  0  0  0  0  0
   -4.5730    3.8970    4.7440 H   0  0  0  0  0  0  0  0  0  0  0  0
    1.4590    3.0200   -7.1940 H   0  0  0  0  0  0  0  0  0  0  0  0
    2.0520    4.3490   -6.1700 H   0  0  0  0  0  0  0  0  0  0  0  0
    0.4790    4.4930   -6.9910 H   0  0  0  0  0  0  0  0  0  0  0  0
   -0.5350    1.6560   -6.4300 H   0  0  0  0  0  0  0  0  0  0  0  0
   -1.4720    3.1530   -6.2090 H   0  0  0  0  0  0  0  0  0  0  0  0
   -1.2920    2.0090   -4.8580 H   0  0  0  0  0  0  0  0  0  0  0  0
  1  3  1  0  0  0  0
  1  4  2  0  0  0  0
  1  6  1  0  0  0  0
  2  3  2  0  0  0  0
  2  5  1  0  0  0  0
  2  7  1  0  0  0  0
  3 20  1  0  0  0  0
  4  5  1  0  0  0  0
  4 13  1  0  0  0  0
  5 31  1  0  0  0  0
  6 14  1  0  0  0  0
  6 18  2  0  0  0  0
  7 17  1  0  0  0  0
  7 19  2  0  0  0  0
  8 11  2  0  0  0  0
  8 12  1  0  0  0  0
  8 21  1  0  0  0  0
  9 10  1  0  0  0  0
  9 15  2  0  0  0  0
  9 16  1  0  0  0  0
 10 13  1  0  0  0  0
 10 14  1  0  0  0  0
 10 32  1  0  0  0  0
 11 15  1  0  0  0  0
 11 22  1  0  0  0  0
 12 16  2  0  0  0  0
 12 23  1  0  0  0  0
 13 33  1  0  0  0  0
 13 34  1  0  0  0  0
 14 35  1  0  0  0  0
 14 36  1  0  0  0  0
 15 37  1  0  0  0  0
 16 38  1  0  0  0  0
 17 24  1  0  0  0  0
 20 39  1  0  0  0  0
 20 40  1  0  0  0  0
 20 41  1  0  0  0  0
 21 26  1  0  0  0  0
 22 28  1  0  0  0  0
 23 27  1  0  0  0  0
 24 25  1  0  0  0  0
 24 42  1  0  0  0  0
 24 43  1  0  0  0  0
 25 29  1  0  0  0  0
 25 30  1  0  0  0  0
 25 44  1  0  0  0  0
 26 45  1  0  0  0  0
 26 46  1  0  0  0  0
 26 47  1  0  0  0  0
 27 48  1  0  0  0  0
 27 49  1  0  0  0  0
 27 50  1  0  0  0  0
 28 51  1  0  0  0  0
 28 52  1  0  0  0  0
 28 53  1  0  0  0  0
 29 54  1  0  0  0  0
 29 55  1  0  0  0  0
 29 56  1  0  0  0  0
 30 57  1  0  0  0  0
 30 58  1  0  0  0  0
 30 59  1  0  0  0  0
M  END
>  <$CLUSTER>
174

>  <INDEX>
114573

$$$$
Chem T&I AMSACS-01505
  MOE2020           3D

 37 39  0  0  0  0  0  0  0  0999 V2000
    1.6950   -0.6790    0.4260 S   0  0  0  0  0  0  0  0  0  0  0  0
    0.4640    0.4420    0.7500 N   0  0  0  0  0  0  0  0  0  0  0  0
   -0.7330    0.4970    0.0200 C   0  0  0  0  0  0  0  0  0  0  0  0
   -1.6410    1.4520    0.2580 N   0  0  0  0  0  0  0  0  0  0  0  0
   -2.6250    1.1820   -0.6140 N   0  0  0  0  0  0  0  0  0  0  0  0
   -1.1560   -0.3780   -1.0090 C   0  0  0  0  0  0  0  0  0  0  0  0
    2.8580   -0.2250    1.6890 C   0  0  0  0  0  0  0  0  0  0  0  0
    2.8070   -0.8580    2.9310 C   0  0  0  0  0  0  0  0  0  0  0  0
   -2.3850    0.0950   -1.3970 C   0  0  0  0  0  0  0  0  0  0  0  0
    3.7420   -0.5190    3.9090 C   0  0  0  0  0  0  0  0  0  0  0  0
    1.2240   -2.0160    0.7310 O   0  0  0  0  0  0  0  0  0  0  0  0
    2.3000   -0.3710   -0.8550 O   0  0  0  0  0  0  0  0  0  0  0  0
    4.7230    0.4360    3.6400 C   0  0  0  0  0  0  0  0  0  0  0  0
    3.8430    0.7230    1.4060 C   0  0  0  0  0  0  0  0  0  0  0  0
   -3.8050    2.0260   -0.6490 C   0  0  0  0  0  0  0  0  0  0  0  0
    4.7740    1.0550    2.3910 C   0  0  0  0  0  0  0  0  0  0  0  0
    3.7630   -1.0640    5.1260 F   0  0  0  0  0  0  0  0  0  0  0  0
   -3.5960    3.2710   -1.4930 C   0  0  0  0  0  0  0  0  0  0  0  0
   -3.1500    5.5440   -3.0610 C   0  0  0  0  0  0  0  0  0  0  0  0
    5.5780    0.7020    4.6290 F   0  0  0  0  0  0  0  0  0  0  0  0
   -2.8900    6.9260   -4.0210 Cl  0  0  0  0  0  0  0  0  0  0  0  0
   -2.8070    5.5510   -1.7100 C   0  0  0  0  0  0  0  0  0  0  0  0
   -3.7080    4.4010   -3.6320 C   0  0  0  0  0  0  0  0  0  0  0  0
   -3.0250    4.4150   -0.9280 C   0  0  0  0  0  0  0  0  0  0  0  0
   -3.9270    3.2650   -2.8510 C   0  0  0  0  0  0  0  0  0  0  0  0
    0.5990    1.1010    1.5040 H   0  0  0  0  0  0  0  0  0  0  0  0
   -0.6270   -1.2330   -1.4030 H   0  0  0  0  0  0  0  0  0  0  0  0
    2.0510   -1.6030    3.1330 H   0  0  0  0  0  0  0  0  0  0  0  0
   -3.0280   -0.3110   -2.1640 H   0  0  0  0  0  0  0  0  0  0  0  0
    3.8840    1.1940    0.4350 H   0  0  0  0  0  0  0  0  0  0  0  0
   -4.0500    2.3290    0.3690 H   0  0  0  0  0  0  0  0  0  0  0  0
   -4.6330    1.4540   -1.0670 H   0  0  0  0  0  0  0  0  0  0  0  0
    5.5360    1.7930    2.1860 H   0  0  0  0  0  0  0  0  0  0  0  0
   -2.3720    6.4350   -1.2680 H   0  0  0  0  0  0  0  0  0  0  0  0
   -3.9710    4.3950   -4.6790 H   0  0  0  0  0  0  0  0  0  0  0  0
   -2.7520    4.4200    0.1170 H   0  0  0  0  0  0  0  0  0  0  0  0
   -4.3530    2.3790   -3.2970 H   0  0  0  0  0  0  0  0  0  0  0  0
  1  2  1  0  0  0  0
  1  7  1  0  0  0  0
  1 11  2  0  0  0  0
  1 12  2  0  0  0  0
  2  3  1  0  0  0  0
  2 26  1  0  0  0  0
  3  4  2  0  0  0  0
  3  6  1  0  0  0  0
  4  5  1  0  0  0  0
  5  9  1  0  0  0  0
  5 15  1  0  0  0  0
  6  9  2  0  0  0  0
  6 27  1  0  0  0  0
  7  8  1  0  0  0  0
  7 14  2  0  0  0  0
  8 10  2  0  0  0  0
  8 28  1  0  0  0  0
  9 29  1  0  0  0  0
 10 13  1  0  0  0  0
 10 17  1  0  0  0  0
 13 16  2  0  0  0  0
 13 20  1  0  0  0  0
 14 16  1  0  0  0  0
 14 30  1  0  0  0  0
 15 18  1  0  0  0  0
 15 31  1  0  0  0  0
 15 32  1  0  0  0  0
 16 33  1  0  0  0  0
 18 24  2  0  0  0  0
 18 25  1  0  0  0  0
 19 21  1  0  0  0  0
 19 22  2  0  0  0  0
 19 23  1  0  0  0  0
 22 24  1  0  0  0  0
 22 34  1  0  0  0  0
 23 25  2  0  0  0  0
 23 35  1  0  0  0  0
 24 36  1  0  0  0  0
 25 37  1  0  0  0  0
M  END
>  <$CLUSTER>
175

>  <INDEX>
513086

$$$$
Chemical Block A3422/0145204
  MOE2020           3D

 38 39  0  0  1  0  0  0  0  0999 V2000
    0.3620    0.6510   -0.0820 N   0  3  0  0  0  0  0  0  0  0  0  0
    1.4940   -4.4420    2.8040 C   0  0  0  0  0  0  0  0  0  0  0  0
    1.2150   -4.6800   -0.8890 C   0  0  0  0  0  0  0  0  0  0  0  0
    1.6870   -4.1780    1.4570 N   0  0  0  0  0  0  0  0  0  0  0  0
    0.6210   -4.2930    0.4660 C   0  0  3  0  0  0  0  0  0  0  0  0
   -0.2920   -0.6470    0.0810 C   0  0  0  0  0  0  0  0  0  0  0  0
    0.1700   -5.0090   -1.9400 C   0  0  0  0  0  0  0  0  0  0  0  0
    0.4780   -1.7400    0.1970 C   0  0  0  0  0  0  0  0  0  0  0  0
   -0.1870   -3.0090    0.3580 C   0  0  0  0  0  0  0  0  0  0  0  0
    2.6460   -4.2380    3.5360 N   0  0  0  0  0  0  0  0  0  0  0  0
    1.6040    0.6970   -0.1070 O   0  5  0  0  0  0  0  0  0  0  0  0
   -0.3660    1.6520   -0.1880 O   0  0  0  0  0  0  0  0  0  0  0  0
    0.4410   -4.8200    3.3100 O   0  0  0  0  0  0  0  0  0  0  0  0
    0.2770   -4.3870   -3.0400 O   0  0  0  0  0  0  0  0  0  0  0  0
    2.9010   -4.3850    4.9190 C   0  0  0  0  0  0  0  0  0  0  0  0
   -0.6890   -5.8930   -1.6440 O   0  5  0  0  0  0  0  0  0  0  0  0
   -1.7850   -0.6130    0.1000 C   0  0  0  0  0  0  0  0  0  0  0  0
   -1.5940   -3.0550    0.3830 C   0  0  0  0  0  0  0  0  0  0  0  0
   -2.3490   -1.8850    0.2580 C   0  0  0  0  0  0  0  0  0  0  0  0
    1.9260   -4.8020    5.8300 C   0  0  0  0  0  0  0  0  0  0  0  0
    4.1900   -4.0990    5.3920 C   0  0  0  0  0  0  0  0  0  0  0  0
    2.2380   -4.9310    7.1880 C   0  0  0  0  0  0  0  0  0  0  0  0
    4.4980   -4.2260    6.7480 C   0  0  0  0  0  0  0  0  0  0  0  0
    3.5210   -4.6430    7.6470 C   0  0  0  0  0  0  0  0  0  0  0  0
    1.8500   -5.5550   -0.7490 H   0  0  0  0  0  0  0  0  0  0  0  0
    1.8180   -3.8470   -1.2510 H   0  0  0  0  0  0  0  0  0  0  0  0
    2.6050   -3.8940    1.1470 H   0  0  0  0  0  0  0  0  0  0  0  0
   -0.0650   -5.0750    0.7910 H   0  0  0  0  0  0  0  0  0  0  0  0
    1.5560   -1.6720    0.1710 H   0  0  0  0  0  0  0  0  0  0  0  0
    3.4410   -3.9320    2.9920 H   0  0  0  0  0  0  0  0  0  0  0  0
   -2.3660    0.2930    0.0030 H   0  0  0  0  0  0  0  0  0  0  0  0
   -2.0950   -4.0040    0.5000 H   0  0  0  0  0  0  0  0  0  0  0  0
   -3.4260   -1.9670    0.2850 H   0  0  0  0  0  0  0  0  0  0  0  0
    0.9280   -5.0260    5.4840 H   0  0  0  0  0  0  0  0  0  0  0  0
    4.9530   -3.7770    4.6990 H   0  0  0  0  0  0  0  0  0  0  0  0
    1.4790   -5.2560    7.8840 H   0  0  0  0  0  0  0  0  0  0  0  0
    5.4940   -4.0010    7.0990 H   0  0  0  0  0  0  0  0  0  0  0  0
    3.7570   -4.7430    8.6960 H   0  0  0  0  0  0  0  0  0  0  0  0
  1  6  1  0  0  0  0
  1 11  1  0  0  0  0
  1 12  2  0  0  0  0
  2  4  1  0  0  0  0
  2 10  1  0  0  0  0
  2 13  2  0  0  0  0
  3  5  1  0  0  0  0
  3  7  1  0  0  0  0
  3 25  1  0  0  0  0
  3 26  1  0  0  0  0
  4  5  1  0  0  0  0
  4 27  1  0  0  0  0
  5  9  1  0  0  0  0
  5 28  1  0  0  0  0
  6  8  2  0  0  0  0
  6 17  1  0  0  0  0
  7 14  2  0  0  0  0
  7 16  1  0  0  0  0
  8  9  1  0  0  0  0
  8 29  1  0  0  0  0
  9 18  2  0  0  0  0
 10 15  1  0  0  0  0
 10 30  1  0  0  0  0
 15 20  2  0  0  0  0
 15 21  1  0  0  0  0
 17 19  2  0  0  0  0
 17 31  1  0  0  0  0
 18 19  1  0  0  0  0
 18 32  1  0  0  0  0
 19 33  1  0  0  0  0
 20 22  1  0  0  0  0
 20 34  1  0  0  0  0
 21 23  2  0  0  0  0
 21 35  1  0  0  0  0
 22 24  2  0  0  0  0
 22 36  1  0  0  0  0
 23 24  1  0  0  0  0
 23 37  1  0  0  0  0
 24 38  1  0  0  0  0
M  CHG  1   1   1
M  CHG  1  11  -1
M  CHG  1  16  -1
M  END
>  <$CLUSTER>
176

>  <INDEX>
114759

$$$$
Chembridge 7491796
  MOE2020           3D

 41 43  0  0  1  0  0  0  0  0999 V2000
   -0.4170   -0.2430    1.3230 C   0  0  0  0  0  0  0  0  0  0  0  0
   -0.4310    0.9880   -0.9070 C   0  0  0  0  0  0  0  0  0  0  0  0
   -1.0420    0.9160    0.5120 C   0  0  0  0  0  0  0  0  0  0  0  0
   -1.0310   -0.3020    2.7260 C   0  0  0  0  0  0  0  0  0  0  0  0
   -0.5580    2.2740   -3.0790 N   0  0  0  0  0  0  0  0  0  0  0  0
   -1.0600    2.1400   -1.6990 C   0  0  3  0  0  0  0  0  0  0  0  0
   -0.6730   -1.5680    0.5700 C   0  0  0  0  0  0  0  0  0  0  0  0
    1.1090   -0.0140    1.4160 C   0  0  0  0  0  0  0  0  0  0  0  0
   -0.6870   -0.3570   -1.6240 C   0  0  0  0  0  0  0  0  0  0  0  0
    1.0950    1.1970   -0.7780 C   0  0  0  0  0  0  0  0  0  0  0  0
   -0.0550   -1.5150   -0.8360 C   0  0  3  0  0  0  0  0  0  0  0  0
    1.7310    0.0420    0.0120 C   0  0  3  0  0  0  0  0  0  0  0  0
   -1.0350    1.4820   -4.1280 C   0  0  0  0  0  0  0  0  0  0  0  0
   -1.6140   -1.3220    3.0760 O   0  0  0  0  0  0  0  0  0  0  0  0
   -1.9670    0.6850   -4.0670 O   0  0  0  0  0  0  0  0  0  0  0  0
    1.4580   -1.2820   -0.7170 C   0  0  0  0  0  0  0  0  0  0  0  0
   -0.8430    0.7970    3.3990 O   0  5  0  0  0  0  0  0  0  0  0  0
   -0.2790    1.7300   -5.4050 C   0  0  0  0  0  0  0  0  0  0  0  0
   -0.9570    3.5450   -1.0620 C   0  0  0  0  0  0  0  0  0  0  0  0
   -0.8540    1.8560    1.0300 H   0  0  0  0  0  0  0  0  0  0  0  0
   -2.1170    0.7550    0.4300 H   0  0  0  0  0  0  0  0  0  0  0  0
    0.1550    2.9620   -3.2730 H   0  0  0  0  0  0  0  0  0  0  0  0
   -2.1030    1.8230   -1.6900 H   0  0  0  0  0  0  0  0  0  0  0  0
   -1.7470   -1.7300    0.4840 H   0  0  0  0  0  0  0  0  0  0  0  0
   -0.2250   -2.3900    1.1280 H   0  0  0  0  0  0  0  0  0  0  0  0
    1.5610   -0.8320    1.9760 H   0  0  0  0  0  0  0  0  0  0  0  0
    1.3000    0.9280    1.9310 H   0  0  0  0  0  0  0  0  0  0  0  0
   -0.2490   -0.3210   -2.6220 H   0  0  0  0  0  0  0  0  0  0  0  0
   -1.7610   -0.5220   -1.7040 H   0  0  0  0  0  0  0  0  0  0  0  0
    1.2860    2.1360   -0.2580 H   0  0  0  0  0  0  0  0  0  0  0  0
    1.5370    1.2370   -1.7740 H   0  0  0  0  0  0  0  0  0  0  0  0
   -0.2410   -2.4560   -1.3540 H   0  0  0  0  0  0  0  0  0  0  0  0
    2.8060    0.2010    0.0930 H   0  0  0  0  0  0  0  0  0  0  0  0
    1.8960   -1.2420   -1.7140 H   0  0  0  0  0  0  0  0  0  0  0  0
    1.9060   -2.1020   -0.1560 H   0  0  0  0  0  0  0  0  0  0  0  0
    0.5010    2.4710   -5.2280 H   0  0  0  0  0  0  0  0  0  0  0  0
   -0.9650    2.1000   -6.1670 H   0  0  0  0  0  0  0  0  0  0  0  0
    0.1750    0.7990   -5.7450 H   0  0  0  0  0  0  0  0  0  0  0  0
    0.0830    3.8710   -1.0670 H   0  0  0  0  0  0  0  0  0  0  0  0
   -1.3210    3.5060   -0.0350 H   0  0  0  0  0  0  0  0  0  0  0  0
   -1.5610    4.2490   -1.6350 H   0  0  0  0  0  0  0  0  0  0  0  0
  1  3  1  0  0  0  0
  1  4  1  0  0  0  0
  1  7  1  0  0  0  0
  1  8  1  0  0  0  0
  2  3  1  0  0  0  0
  2  6  1  0  0  0  0
  2  9  1  0  0  0  0
  2 10  1  0  0  0  0
  3 20  1  0  0  0  0
  3 21  1  0  0  0  0
  4 14  2  0  0  0  0
  4 17  1  0  0  0  0
  5  6  1  0  0  0  0
  5 13  1  0  0  0  0
  5 22  1  0  0  0  0
  6 19  1  0  0  0  0
  6 23  1  0  0  0  0
  7 11  1  0  0  0  0
  7 24  1  0  0  0  0
  7 25  1  0  0  0  0
  8 12  1  0  0  0  0
  8 26  1  0  0  0  0
  8 27  1  0  0  0  0
  9 11  1  0  0  0  0
  9 28  1  0  0  0  0
  9 29  1  0  0  0  0
 10 12  1  0  0  0  0
 10 30  1  0  0  0  0
 10 31  1  0  0  0  0
 11 16  1  0  0  0  0
 11 32  1  0  0  0  0
 12 16  1  0  0  0  0
 12 33  1  0  0  0  0
 13 15  2  0  0  0  0
 13 18  1  0  0  0  0
 16 34  1  0  0  0  0
 16 35  1  0  0  0  0
 18 36  1  0  0  0  0
 18 37  1  0  0  0  0
 18 38  1  0  0  0  0
 19 39  1  0  0  0  0
 19 40  1  0  0  0  0
 19 41  1  0  0  0  0
M  CHG  1  17  -1
M  END
>  <$CLUSTER>
177

>  <INDEX>
79333

$$$$
Chemical Block A3657/0155038
  MOE2020           3D

 44 47  0  0  1  0  0  0  0  0999 V2000
   -1.1770   -0.6570    0.4620 C   0  0  0  0  0  0  0  0  0  0  0  0
   -0.3610   -1.2730   -0.6190 C   0  0  0  0  0  0  0  0  0  0  0  0
   -0.8290    0.5160    0.9980 C   0  0  0  0  0  0  0  0  0  0  0  0
    0.7900   -0.5820   -1.0290 N   0  0  0  0  0  0  0  0  0  0  0  0
    0.3770    1.2260    0.5680 C   0  0  0  0  0  0  0  0  0  0  0  0
   -2.4200   -1.3650    0.9250 C   0  0  3  0  0  0  0  0  0  0  0  0
    1.1740    0.6680   -0.4450 C   0  0  0  0  0  0  0  0  0  0  0  0
   -1.5620    1.1180    2.0450 O   0  0  0  0  0  0  0  0  0  0  0  0
   -2.7930    0.6520    2.4050 C   0  0  0  0  0  0  0  0  0  0  0  0
   -3.4200   -0.3410    1.4600 C   0  0  0  0  0  0  0  0  0  0  0  0
   -0.7190   -2.3470   -1.0980 O   0  0  0  0  0  0  0  0  0  0  0  0
   -2.0850   -2.4260    1.9770 C   0  0  0  0  0  0  0  0  0  0  0  0
   -3.3850    1.0830    3.3900 O   0  0  0  0  0  0  0  0  0  0  0  0
   -2.3930   -3.7710    1.7140 C   0  0  0  0  0  0  0  0  0  0  0  0
   -1.5000   -2.1020    3.2070 C   0  0  0  0  0  0  0  0  0  0  0  0
    1.6180   -1.1580   -2.0850 C   0  0  0  0  0  0  0  0  0  0  0  0
    0.7470    2.4530    1.1460 C   0  0  0  0  0  0  0  0  0  0  0  0
   -1.2120   -3.0940    4.1430 C   0  0  0  0  0  0  0  0  0  0  0  0
   -2.1040   -4.7630    2.6520 C   0  0  0  0  0  0  0  0  0  0  0  0
   -1.5150   -4.4240    3.8670 C   0  0  0  0  0  0  0  0  0  0  0  0
    2.3300    1.3550   -0.8560 C   0  0  0  0  0  0  0  0  0  0  0  0
   -1.1910   -5.5060    4.8830 C   0  0  0  0  0  0  0  0  0  0  0  0
    1.8960    3.1210    0.7270 C   0  0  0  0  0  0  0  0  0  0  0  0
    2.6870    2.5720   -0.2740 C   0  0  0  0  0  0  0  0  0  0  0  0
    0.2070   -6.0700    4.6780 C   0  0  0  0  0  0  0  0  0  0  0  0
   -2.8730   -1.8840    0.0800 H   0  0  0  0  0  0  0  0  0  0  0  0
   -4.2120   -0.8720    1.9880 H   0  0  0  0  0  0  0  0  0  0  0  0
   -3.8460    0.2020    0.6170 H   0  0  0  0  0  0  0  0  0  0  0  0
   -2.8580   -4.0400    0.7770 H   0  0  0  0  0  0  0  0  0  0  0  0
   -1.2690   -1.0720    3.4330 H   0  0  0  0  0  0  0  0  0  0  0  0
    1.1830   -2.1020   -2.4130 H   0  0  0  0  0  0  0  0  0  0  0  0
    2.6240   -1.3340   -1.7030 H   0  0  0  0  0  0  0  0  0  0  0  0
    1.6650   -0.4680   -2.9270 H   0  0  0  0  0  0  0  0  0  0  0  0
    0.1340    2.8830    1.9240 H   0  0  0  0  0  0  0  0  0  0  0  0
   -0.7530   -2.8300    5.0840 H   0  0  0  0  0  0  0  0  0  0  0  0
   -2.3380   -5.7950    2.4350 H   0  0  0  0  0  0  0  0  0  0  0  0
    2.9510    0.9350   -1.6330 H   0  0  0  0  0  0  0  0  0  0  0  0
   -1.9160   -6.3140    4.7820 H   0  0  0  0  0  0  0  0  0  0  0  0
   -1.2570   -5.0810    5.8850 H   0  0  0  0  0  0  0  0  0  0  0  0
    2.1710    4.0630    1.1790 H   0  0  0  0  0  0  0  0  0  0  0  0
    3.5780    3.0870   -0.6020 H   0  0  0  0  0  0  0  0  0  0  0  0
    0.2830   -6.4980    3.6780 H   0  0  0  0  0  0  0  0  0  0  0  0
    0.3990   -6.8450    5.4200 H   0  0  0  0  0  0  0  0  0  0  0  0
    0.9410   -5.2720    4.7890 H   0  0  0  0  0  0  0  0  0  0  0  0
  1  2  1  0  0  0  0
  1  3  2  0  0  0  0
  1  6  1  0  0  0  0
  2  4  1  0  0  0  0
  2 11  2  0  0  0  0
  3  5  1  0  0  0  0
  3  8  1  0  0  0  0
  4  7  1  0  0  0  0
  4 16  1  0  0  0  0
  5  7  2  0  0  0  0
  5 17  1  0  0  0  0
  6 10  1  0  0  0  0
  6 12  1  0  0  0  0
  6 26  1  0  0  0  0
  7 21  1  0  0  0  0
  8  9  1  0  0  0  0
  9 10  1  0  0  0  0
  9 13  2  0  0  0  0
 10 27  1  0  0  0  0
 10 28  1  0  0  0  0
 12 14  1  0  0  0  0
 12 15  2  0  0  0  0
 14 19  2  0  0  0  0
 14 29  1  0  0  0  0
 15 18  1  0  0  0  0
 15 30  1  0  0  0  0
 16 31  1  0  0  0  0
 16 32  1  0  0  0  0
 16 33  1  0  0  0  0
 17 23  2  0  0  0  0
 17 34  1  0  0  0  0
 18 20  2  0  0  0  0
 18 35  1  0  0  0  0
 19 20  1  0  0  0  0
 19 36  1  0  0  0  0
 20 22  1  0  0  0  0
 21 24  2  0  0  0  0
 21 37  1  0  0  0  0
 22 25  1  0  0  0  0
 22 38  1  0  0  0  0
 22 39  1  0  0  0  0
 23 24  1  0  0  0  0
 23 40  1  0  0  0  0
 24 41  1  0  0  0  0
 25 42  1  0  0  0  0
 25 43  1  0  0  0  0
 25 44  1  0  0  0  0
M  END
>  <$CLUSTER>
178

>  <INDEX>
117863

$$$$
Life Chemicals F1374-0110
  MOE2020           3D

 31 33  0  0  0  0  0  0  0  0999 V2000
    0.4690   -0.2280    0.4660 C   0  0  0  0  0  0  0  0  0  0  0  0
    1.1970   -0.2760    1.6260 O   0  0  0  0  0  0  0  0  0  0  0  0
    1.1400   -1.6010    1.9270 C   0  0  0  0  0  0  0  0  0  0  0  0
    0.4570   -2.3080    1.0600 N   0  0  0  0  0  0  0  0  0  0  0  0
    0.3290    1.0060   -0.1170 N   0  0  0  0  0  0  0  0  0  0  0  0
    0.0170   -1.4120    0.1040 N   0  0  0  0  0  0  0  0  0  0  0  0
   -0.3870    1.1670   -1.2910 C   0  0  0  0  0  0  0  0  0  0  0  0
    1.8320   -2.0370    3.1450 C   0  0  0  0  0  0  0  0  0  0  0  0
   -0.4060    2.6050   -1.7380 C   0  0  0  0  0  0  0  0  0  0  0  0
   -0.9640    0.2900   -1.9290 O   0  0  0  0  0  0  0  0  0  0  0  0
    2.5230   -1.1320    3.9660 C   0  0  0  0  0  0  0  0  0  0  0  0
    1.8100   -3.3910    3.5100 C   0  0  0  0  0  0  0  0  0  0  0  0
   -1.5000    2.9800   -2.5760 C   0  0  0  0  0  0  0  0  0  0  0  0
    0.5730    3.5230   -1.4550 C   0  0  0  0  0  0  0  0  0  0  0  0
    3.1430   -2.9210    5.4710 C   0  0  0  0  0  0  0  0  0  0  0  0
   -0.5900    5.2130   -2.7380 C   0  0  0  0  0  0  0  0  0  0  0  0
    2.4620   -3.8300    4.6650 C   0  0  0  0  0  0  0  0  0  0  0  0
    3.1740   -1.5740    5.1210 C   0  0  0  0  0  0  0  0  0  0  0  0
    0.4870    4.8300   -1.9400 C   0  0  0  0  0  0  0  0  0  0  0  0
   -1.5830    4.2880   -3.0580 C   0  0  0  0  0  0  0  0  0  0  0  0
    3.7370   -3.4210    6.5550 F   0  0  0  0  0  0  0  0  0  0  0  0
   -0.6800    6.8120   -3.3150 Cl  0  0  0  0  0  0  0  0  0  0  0  0
    0.7560    1.8110    0.3180 H   0  0  0  0  0  0  0  0  0  0  0  0
    2.5520   -0.0850    3.7030 H   0  0  0  0  0  0  0  0  0  0  0  0
    1.2830   -4.1020    2.8910 H   0  0  0  0  0  0  0  0  0  0  0  0
   -2.2590    2.2560   -2.8350 H   0  0  0  0  0  0  0  0  0  0  0  0
    1.4190    3.2320   -0.8510 H   0  0  0  0  0  0  0  0  0  0  0  0
    2.4380   -4.8760    4.9330 H   0  0  0  0  0  0  0  0  0  0  0  0
    3.7030   -0.8680    5.7440 H   0  0  0  0  0  0  0  0  0  0  0  0
    1.2580    5.5460   -1.6960 H   0  0  0  0  0  0  0  0  0  0  0  0
   -2.4160    4.5830   -3.6790 H   0  0  0  0  0  0  0  0  0  0  0  0
  1  2  1  0  0  0  0
  1  5  1  0  0  0  0
  1  6  2  0  0  0  0
  2  3  1  0  0  0  0
  3  4  2  0  0  0  0
  3  8  1  0  0  0  0
  4  6  1  0  0  0  0
  5  7  1  0  0  0  0
  5 23  1  0  0  0  0
  7  9  1  0  0  0  0
  7 10  2  0  0  0  0
  8 11  1  0  0  0  0
  8 12  2  0  0  0  0
  9 13  1  0  0  0  0
  9 14  2  0  0  0  0
 11 18  2  0  0  0  0
 11 24  1  0  0  0  0
 12 17  1  0  0  0  0
 12 25  1  0  0  0  0
 13 20  2  0  0  0  0
 13 26  1  0  0  0  0
 14 19  1  0  0  0  0
 14 27  1  0  0  0  0
 15 17  2  0  0  0  0
 15 18  1  0  0  0  0
 15 21  1  0  0  0  0
 16 19  2  0  0  0  0
 16 20  1  0  0  0  0
 16 22  1  0  0  0  0
 17 28  1  0  0  0  0
 18 29  1  0  0  0  0
 19 30  1  0  0  0  0
 20 31  1  0  0  0  0
M  END
>  <$CLUSTER>
179

>  <INDEX>
293236

$$$$
Chemical Block A3500/0148375
  MOE2020           3D

 44 47  0  0  0  0  0  0  0  0999 V2000
   -1.5750   -0.0110    0.1430 C   0  0  0  0  0  0  0  0  0  0  0  0
   -0.1790    0.2190    0.1560 C   0  0  0  0  0  0  0  0  0  0  0  0
   -2.5750    0.9000    0.7430 C   0  0  0  0  0  0  0  0  0  0  0  0
   -2.0820   -1.1200   -0.5600 C   0  0  0  0  0  0  0  0  0  0  0  0
    0.6530   -0.6000   -0.6350 C   0  0  0  0  0  0  0  0  0  0  0  0
    0.5750    1.3320    1.3480 S   0  0  0  0  0  0  0  0  0  0  0  0
   -3.5100   -1.4790   -0.4980 C   0  0  0  0  0  0  0  0  0  0  0  0
    2.0950   -0.3670   -0.8210 C   0  0  0  0  0  0  0  0  0  0  0  0
   -3.9230    0.3780    1.0130 C   0  0  0  0  0  0  0  0  0  0  0  0
   -4.3640   -0.7260    0.4260 C   0  0  0  0  0  0  0  0  0  0  0  0
    0.1190   -1.6600   -1.3770 C   0  0  0  0  0  0  0  0  0  0  0  0
   -1.2390   -1.9380   -1.3160 C   0  0  0  0  0  0  0  0  0  0  0  0
    2.9060   -1.4120   -0.4440 N   0  0  0  0  0  0  0  0  0  0  0  0
    1.9310    0.8840    1.6030 O   0  0  0  0  0  0  0  0  0  0  0  0
   -0.3230    1.4610    2.4800 O   0  0  0  0  0  0  0  0  0  0  0  0
   -2.3490    2.0830    0.9560 O   0  0  0  0  0  0  0  0  0  0  0  0
   -3.9750   -2.3930   -1.1670 O   0  0  0  0  0  0  0  0  0  0  0  0
    2.4880    0.6920   -1.2970 O   0  0  0  0  0  0  0  0  0  0  0  0
    4.2980   -1.5460   -0.4770 C   0  0  0  0  0  0  0  0  0  0  0  0
    0.6730    2.8940    0.5110 C   0  0  0  0  0  0  0  0  0  0  0  0
    7.0780   -1.9490   -0.4910 C   0  0  0  0  0  0  0  0  0  0  0  0
    8.3830   -2.2150   -0.4640 F   0  0  0  0  0  0  0  0  0  0  0  0
    5.1540   -0.5490   -0.9500 C   0  0  0  0  0  0  0  0  0  0  0  0
    4.8520   -2.7480   -0.0100 C   0  0  0  0  0  0  0  0  0  0  0  0
   -4.8700    1.2820    1.6430 C   0  0  0  0  0  0  0  0  0  0  0  0
   -5.7560   -1.0930    0.4680 C   0  0  0  0  0  0  0  0  0  0  0  0
    6.2330   -2.9480   -0.0180 C   0  0  0  0  0  0  0  0  0  0  0  0
    6.5390   -0.7520   -0.9570 C   0  0  0  0  0  0  0  0  0  0  0  0
   -6.6390   -0.3080    1.2120 C   0  0  0  0  0  0  0  0  0  0  0  0
   -6.1960    0.8780    1.7980 C   0  0  0  0  0  0  0  0  0  0  0  0
    0.7650   -2.2630   -1.9980 H   0  0  0  0  0  0  0  0  0  0  0  0
   -1.6430   -2.7840   -1.8510 H   0  0  0  0  0  0  0  0  0  0  0  0
    2.4140   -2.2170   -0.0830 H   0  0  0  0  0  0  0  0  0  0  0  0
    1.3460    2.8070   -0.3420 H   0  0  0  0  0  0  0  0  0  0  0  0
    1.0520    3.6510    1.1980 H   0  0  0  0  0  0  0  0  0  0  0  0
   -0.3190    3.1830    0.1630 H   0  0  0  0  0  0  0  0  0  0  0  0
    4.7460    0.3830   -1.3120 H   0  0  0  0  0  0  0  0  0  0  0  0
    4.2020   -3.5270    0.3600 H   0  0  0  0  0  0  0  0  0  0  0  0
   -4.5510    2.2550    1.9870 H   0  0  0  0  0  0  0  0  0  0  0  0
   -6.1110   -1.9610   -0.0670 H   0  0  0  0  0  0  0  0  0  0  0  0
    6.6460   -3.8780    0.3430 H   0  0  0  0  0  0  0  0  0  0  0  0
    7.1930    0.0240   -1.3260 H   0  0  0  0  0  0  0  0  0  0  0  0
   -7.6660   -0.6190    1.3340 H   0  0  0  0  0  0  0  0  0  0  0  0
   -6.8810    1.4840    2.3720 H   0  0  0  0  0  0  0  0  0  0  0  0
  1  2  2  0  0  0  0
  1  3  1  0  0  0  0
  1  4  1  0  0  0  0
  2  5  1  0  0  0  0
  2  6  1  0  0  0  0
  3  9  1  0  0  0  0
  3 16  2  0  0  0  0
  4  7  1  0  0  0  0
  4 12  2  0  0  0  0
  5  8  1  0  0  0  0
  5 11  2  0  0  0  0
  6 14  2  0  0  0  0
  6 15  2  0  0  0  0
  6 20  1  0  0  0  0
  7 10  1  0  0  0  0
  7 17  2  0  0  0  0
  8 13  1  0  0  0  0
  8 18  2  0  0  0  0
  9 10  2  0  0  0  0
  9 25  1  0  0  0  0
 10 26  1  0  0  0  0
 11 12  1  0  0  0  0
 11 31  1  0  0  0  0
 12 32  1  0  0  0  0
 13 19  1  0  0  0  0
 13 33  1  0  0  0  0
 19 23  1  0  0  0  0
 19 24  2  0  0  0  0
 20 34  1  0  0  0  0
 20 35  1  0  0  0  0
 20 36  1  0  0  0  0
 21 22  1  0  0  0  0
 21 27  2  0  0  0  0
 21 28  1  0  0  0  0
 23 28  2  0  0  0  0
 23 37  1  0  0  0  0
 24 27  1  0  0  0  0
 24 38  1  0  0  0  0
 25 30  2  0  0  0  0
 25 39  1  0  0  0  0
 26 29  2  0  0  0  0
 26 40  1  0  0  0  0
 27 41  1  0  0  0  0
 28 42  1  0  0  0  0
 29 30  1  0  0  0  0
 29 43  1  0  0  0  0
 30 44  1  0  0  0  0
M  END
>  <$CLUSTER>
180

>  <INDEX>
115636

$$$$
InterBioScreen STOCK5S-94055
  MOE2020           3D

 53 56  0  0  1  0  0  0  0  0999 V2000
    1.4390   -0.0340    0.1930 C   0  0  3  0  0  0  0  0  0  0  0  0
    0.3280    1.0120    0.1410 C   0  0  0  0  0  0  0  0  0  0  0  0
   -0.9740    0.4940    0.2310 N   0  0  0  0  0  0  0  0  0  0  0  0
    1.0700   -1.3540   -0.4600 C   0  0  0  0  0  0  0  0  0  0  0  0
   -1.3170   -0.8570    0.0360 C   0  0  0  0  0  0  0  0  0  0  0  0
   -0.2720   -1.6780   -0.3720 N   0  0  0  0  0  0  0  0  0  0  0  0
    2.9430   -1.2130    1.8540 N   0  0  0  0  0  0  0  0  0  0  0  0
    1.7270   -0.3200    1.6780 C   0  0  3  0  0  0  0  0  0  0  0  0
    7.4090   -0.6090   -1.5670 N   0  3  0  0  0  0  0  0  0  0  0  0
    4.0390   -1.0700    1.0040 C   0  0  0  0  0  0  0  0  0  0  0  0
    2.7100    0.5240   -0.4680 C   0  0  0  0  0  0  0  0  0  0  0  0
    3.9740   -0.2290   -0.1300 C   0  0  0  0  0  0  0  0  0  0  0  0
    6.2720   -0.7530   -0.7240 C   0  0  0  0  0  0  0  0  0  0  0  0
    5.0880   -0.0680   -0.9730 C   0  0  0  0  0  0  0  0  0  0  0  0
    5.2520   -1.7550    1.2220 C   0  0  0  0  0  0  0  0  0  0  0  0
    0.5820    2.2170    0.0920 O   0  0  0  0  0  0  0  0  0  0  0  0
    8.4600   -1.2300   -1.3300 O   0  5  0  0  0  0  0  0  0  0  0  0
   -2.4580   -1.3080    0.1630 O   0  0  0  0  0  0  0  0  0  0  0  0
    1.8980   -2.1150   -0.9590 O   0  0  0  0  0  0  0  0  0  0  0  0
    7.2680    0.1640   -2.5280 O   0  0  0  0  0  0  0  0  0  0  0  0
    2.0060    0.9120    2.5960 C   0  0  0  0  0  0  0  0  0  0  0  0
    6.3520   -1.6000    0.3720 C   0  0  0  0  0  0  0  0  0  0  0  0
   -2.0630    1.4380    0.5060 C   0  0  0  0  0  0  0  0  0  0  0  0
    2.9420   -2.2050    2.9210 C   0  0  0  0  0  0  0  0  0  0  0  0
    3.1310    1.7050    2.4080 C   0  0  0  0  0  0  0  0  0  0  0  0
    0.9600    1.3730    3.4130 C   0  0  0  0  0  0  0  0  0  0  0  0
   -2.6690    1.9790   -0.7810 C   0  0  0  0  0  0  0  0  0  0  0  0
   -3.7860    2.9630   -0.5050 C   0  0  0  0  0  0  0  0  0  0  0  0
    3.2920    2.8840    3.1400 C   0  0  0  0  0  0  0  0  0  0  0  0
    1.1220    2.5530    4.1460 C   0  0  0  0  0  0  0  0  0  0  0  0
    2.2860    3.3080    4.0090 C   0  0  0  0  0  0  0  0  0  0  0  0
   -0.5220   -2.6210   -0.6350 H   0  0  0  0  0  0  0  0  0  0  0  0
    0.7880   -0.7790    1.9870 H   0  0  0  0  0  0  0  0  0  0  0  0
    2.8340    1.5580   -0.1480 H   0  0  0  0  0  0  0  0  0  0  0  0
    2.5740    0.4920   -1.5490 H   0  0  0  0  0  0  0  0  0  0  0  0
    5.0230    0.5950   -1.8230 H   0  0  0  0  0  0  0  0  0  0  0  0
    5.3340   -2.4190    2.0700 H   0  0  0  0  0  0  0  0  0  0  0  0
    7.2660   -2.1410    0.5690 H   0  0  0  0  0  0  0  0  0  0  0  0
   -1.6710    2.2700    1.0910 H   0  0  0  0  0  0  0  0  0  0  0  0
   -2.8390    0.9270    1.0760 H   0  0  0  0  0  0  0  0  0  0  0  0
    1.9990   -2.1530    3.4640 H   0  0  0  0  0  0  0  0  0  0  0  0
    3.7670   -2.0040    3.6050 H   0  0  0  0  0  0  0  0  0  0  0  0
    3.0600   -3.2000    2.4920 H   0  0  0  0  0  0  0  0  0  0  0  0
    3.8840    1.4090    1.6930 H   0  0  0  0  0  0  0  0  0  0  0  0
    0.0350    0.8190    3.4750 H   0  0  0  0  0  0  0  0  0  0  0  0
   -3.0670    1.1460   -1.3610 H   0  0  0  0  0  0  0  0  0  0  0  0
   -1.8900    2.4810   -1.3540 H   0  0  0  0  0  0  0  0  0  0  0  0
   -4.5710    2.4700    0.0680 H   0  0  0  0  0  0  0  0  0  0  0  0
   -4.1960    3.3210   -1.4490 H   0  0  0  0  0  0  0  0  0  0  0  0
   -3.3950    3.8060    0.0650 H   0  0  0  0  0  0  0  0  0  0  0  0
    4.1950    3.4670    3.0330 H   0  0  0  0  0  0  0  0  0  0  0  0
    0.3440    2.8800    4.8200 H   0  0  0  0  0  0  0  0  0  0  0  0
    2.4090    4.2200    4.5750 H   0  0  0  0  0  0  0  0  0  0  0  0
  1  2  1  0  0  0  0
  1  4  1  0  0  0  0
  1  8  1  0  0  0  0
  1 11  1  0  0  0  0
  2  3  1  0  0  0  0
  2 16  2  0  0  0  0
  3  5  1  0  0  0  0
  3 23  1  0  0  0  0
  4  6  1  0  0  0  0
  4 19  2  0  0  0  0
  5  6  1  0  0  0  0
  5 18  2  0  0  0  0
  6 32  1  0  0  0  0
  7  8  1  0  0  0  0
  7 10  1  0  0  0  0
  7 24  1  0  0  0  0
  8 21  1  0  0  0  0
  8 33  1  0  0  0  0
  9 13  1  0  0  0  0
  9 17  1  0  0  0  0
  9 20  2  0  0  0  0
 10 12  1  0  0  0  0
 10 15  2  0  0  0  0
 11 12  1  0  0  0  0
 11 34  1  0  0  0  0
 11 35  1  0  0  0  0
 12 14  2  0  0  0  0
 13 14  1  0  0  0  0
 13 22  2  0  0  0  0
 14 36  1  0  0  0  0
 15 22  1  0  0  0  0
 15 37  1  0  0  0  0
 21 25  2  0  0  0  0
 21 26  1  0  0  0  0
 22 38  1  0  0  0  0
 23 27  1  0  0  0  0
 23 39  1  0  0  0  0
 23 40  1  0  0  0  0
 24 41  1  0  0  0  0
 24 42  1  0  0  0  0
 24 43  1  0  0  0  0
 25 29  1  0  0  0  0
 25 44  1  0  0  0  0
 26 30  2  0  0  0  0
 26 45  1  0  0  0  0
 27 28  1  0  0  0  0
 27 46  1  0  0  0  0
 27 47  1  0  0  0  0
 28 48  1  0  0  0  0
 28 49  1  0  0  0  0
 28 50  1  0  0  0  0
 29 31  2  0  0  0  0
 29 51  1  0  0  0  0
 30 31  1  0  0  0  0
 30 52  1  0  0  0  0
 31 53  1  0  0  0  0
M  CHG  1   9   1
M  CHG  1  17  -1
M  END
>  <$CLUSTER>
181

>  <INDEX>
397909

$$$$
Chemical Block A3577/0151844
  MOE2020           3D

 48 50  0  0  1  0  0  0  0  0999 V2000
   -2.5670    0.8160    5.5470 S   0  0  0  0  0  0  0  0  0  0  0  0
    0.6030   -0.1660   -0.3880 N   0  0  0  0  0  0  0  0  0  0  0  0
    0.6620    0.0910   -2.8270 C   0  0  0  0  0  0  0  0  0  0  0  0
   -0.1390    1.2010   -2.6910 N   0  0  0  0  0  0  0  0  0  0  0  0
    0.3200   -1.0830    0.6300 C   0  0  0  0  0  0  0  0  0  0  0  0
    1.2020   -0.6640   -1.6450 C   0  0  3  0  0  0  0  0  0  0  0  0
    0.8140   -0.1260   -4.1840 C   0  0  0  0  0  0  0  0  0  0  0  0
   -0.4760    1.7020   -3.9160 C   0  0  0  0  0  0  0  0  0  0  0  0
    0.1020    0.8910   -4.8680 C   0  0  0  0  0  0  0  0  0  0  0  0
    0.3810    1.2880   -0.3020 C   0  0  0  0  0  0  0  0  0  0  0  0
   -0.5610    1.7360   -1.4100 C   0  0  0  0  0  0  0  0  0  0  0  0
   -1.7240    0.2450    4.1030 C   0  0  0  0  0  0  0  0  0  0  0  0
   -3.0970   -0.5980    6.2690 N   0  0  0  0  0  0  0  0  0  0  0  0
   -1.5930    1.4240    6.4390 O   0  0  0  0  0  0  0  0  0  0  0  0
   -3.7400    1.5660    5.1360 O   0  0  0  0  0  0  0  0  0  0  0  0
   -0.3860   -0.6000    1.8240 C   0  0  0  0  0  0  0  0  0  0  0  0
    0.6060   -2.2770    0.6120 O   0  0  0  0  0  0  0  0  0  0  0  0
   -0.3630   -0.0640    4.1690 C   0  0  0  0  0  0  0  0  0  0  0  0
   -2.4160    0.1200    2.8970 C   0  0  0  0  0  0  0  0  0  0  0  0
    0.3120   -0.4950    3.0280 C   0  0  0  0  0  0  0  0  0  0  0  0
   -1.7490   -0.3100    1.7510 C   0  0  0  0  0  0  0  0  0  0  0  0
    2.7290   -0.5850   -1.5790 C   0  0  0  0  0  0  0  0  0  0  0  0
   -1.2640    2.8300   -4.1180 C   0  0  0  0  0  0  0  0  0  0  0  0
   -4.1710   -1.3660    5.5840 C   0  0  0  0  0  0  0  0  0  0  0  0
   -2.0750   -1.5040    6.8580 C   0  0  0  0  0  0  0  0  0  0  0  0
    0.9280   -1.7110   -1.7700 H   0  0  0  0  0  0  0  0  0  0  0  0
    1.3750   -0.9270   -4.6410 H   0  0  0  0  0  0  0  0  0  0  0  0
    0.0260    1.0090   -5.9390 H   0  0  0  0  0  0  0  0  0  0  0  0
    1.3340    1.8060   -0.4070 H   0  0  0  0  0  0  0  0  0  0  0  0
   -0.0590    1.5300    0.6660 H   0  0  0  0  0  0  0  0  0  0  0  0
   -1.5680    1.3820   -1.1890 H   0  0  0  0  0  0  0  0  0  0  0  0
   -0.5620    2.8250   -1.4600 H   0  0  0  0  0  0  0  0  0  0  0  0
    0.1670    0.0310    5.1050 H   0  0  0  0  0  0  0  0  0  0  0  0
   -3.4690    0.3570    2.8520 H   0  0  0  0  0  0  0  0  0  0  0  0
    1.3620   -0.7440    3.0750 H   0  0  0  0  0  0  0  0  0  0  0  0
   -2.2810   -0.4170    0.8170 H   0  0  0  0  0  0  0  0  0  0  0  0
    3.0340    0.4540   -1.4530 H   0  0  0  0  0  0  0  0  0  0  0  0
    3.1530   -0.9790   -2.5020 H   0  0  0  0  0  0  0  0  0  0  0  0
    3.0870   -1.1730   -0.7340 H   0  0  0  0  0  0  0  0  0  0  0  0
   -1.5630    3.2420   -3.1540 H   0  0  0  0  0  0  0  0  0  0  0  0
   -2.1520    2.5550   -4.6870 H   0  0  0  0  0  0  0  0  0  0  0  0
   -0.6950    3.5770   -4.6720 H   0  0  0  0  0  0  0  0  0  0  0  0
   -4.9010   -0.6740    5.1650 H   0  0  0  0  0  0  0  0  0  0  0  0
   -4.6630   -2.0220    6.3020 H   0  0  0  0  0  0  0  0  0  0  0  0
   -3.7360   -1.9640    4.7830 H   0  0  0  0  0  0  0  0  0  0  0  0
   -1.3050   -0.9110    7.3510 H   0  0  0  0  0  0  0  0  0  0  0  0
   -1.6220   -2.1030    6.0680 H   0  0  0  0  0  0  0  0  0  0  0  0
   -2.5490   -2.1620    7.5870 H   0  0  0  0  0  0  0  0  0  0  0  0
  1 12  1  0  0  0  0
  1 13  1  0  0  0  0
  1 14  2  0  0  0  0
  1 15  2  0  0  0  0
  2  5  1  0  0  0  0
  2  6  1  0  0  0  0
  2 10  1  0  0  0  0
  3  4  1  0  0  0  0
  3  6  1  0  0  0  0
  3  7  2  0  0  0  0
  4  8  1  0  0  0  0
  4 11  1  0  0  0  0
  5 16  1  0  0  0  0
  5 17  2  0  0  0  0
  6 22  1  0  0  0  0
  6 26  1  0  0  0  0
  7  9  1  0  0  0  0
  7 27  1  0  0  0  0
  8  9  2  0  0  0  0
  8 23  1  0  0  0  0
  9 28  1  0  0  0  0
 10 11  1  0  0  0  0
 10 29  1  0  0  0  0
 10 30  1  0  0  0  0
 11 31  1  0  0  0  0
 11 32  1  0  0  0  0
 12 18  2  0  0  0  0
 12 19  1  0  0  0  0
 13 24  1  0  0  0  0
 13 25  1  0  0  0  0
 16 20  2  0  0  0  0
 16 21  1  0  0  0  0
 18 20  1  0  0  0  0
 18 33  1  0  0  0  0
 19 21  2  0  0  0  0
 19 34  1  0  0  0  0
 20 35  1  0  0  0  0
 21 36  1  0  0  0  0
 22 37  1  0  0  0  0
 22 38  1  0  0  0  0
 22 39  1  0  0  0  0
 23 40  1  0  0  0  0
 23 41  1  0  0  0  0
 23 42  1  0  0  0  0
 24 43  1  0  0  0  0
 24 44  1  0  0  0  0
 24 45  1  0  0  0  0
 25 46  1  0  0  0  0
 25 47  1  0  0  0  0
 25 48  1  0  0  0  0
M  END
>  <$CLUSTER>
182

>  <INDEX>
116660

$$$$
Chem T&I AMSACS-14707
  MOE2020           3D

 35 36  0  0  0  0  0  0  0  0999 V2000
    1.5830    1.5040   -0.1400 S   0  0  0  0  0  0  0  0  0  0  0  0
    0.2990    2.6940    0.1780 C   0  0  0  0  0  0  0  0  0  0  0  0
    1.0620    0.2120    0.8600 N   0  0  0  0  0  0  0  0  0  0  0  0
    0.1160    3.2340    1.4680 C   0  0  0  0  0  0  0  0  0  0  0  0
    2.8060    2.0420    0.4260 O   0  0  0  0  0  0  0  0  0  0  0  0
    1.5160    1.1400   -1.5410 O   0  0  0  0  0  0  0  0  0  0  0  0
   -0.5040    3.1030   -0.8890 C   0  0  0  0  0  0  0  0  0  0  0  0
   -2.3980   -1.1660    0.7640 C   0  0  0  0  0  0  0  0  0  0  0  0
   -0.9010    4.1770    1.6590 C   0  0  0  0  0  0  0  0  0  0  0  0
   -1.2700   -0.4500    1.1690 C   0  0  0  0  0  0  0  0  0  0  0  0
   -0.0820   -0.5500    0.4390 C   0  0  0  0  0  0  0  0  0  0  0  0
   -2.3400   -1.9790   -0.3670 C   0  0  0  0  0  0  0  0  0  0  0  0
   -1.1540   -2.0800   -1.0940 C   0  0  0  0  0  0  0  0  0  0  0  0
   -1.7090    4.5770    0.5910 C   0  0  0  0  0  0  0  0  0  0  0  0
   -3.4930   -1.0190    1.5100 F   0  0  0  0  0  0  0  0  0  0  0  0
   -1.5110    4.0420   -0.6790 C   0  0  0  0  0  0  0  0  0  0  0  0
   -0.0240   -1.3660   -0.6940 C   0  0  0  0  0  0  0  0  0  0  0  0
    0.9480    2.7840    2.4590 O   0  0  0  0  0  0  0  0  0  0  0  0
   -3.3740   -2.6910   -0.8160 F   0  0  0  0  0  0  0  0  0  0  0  0
   -2.7320    5.5010    0.6740 O   0  0  0  0  0  0  0  0  0  0  0  0
    0.7760    3.3290    3.7620 C   0  0  0  0  0  0  0  0  0  0  0  0
   -2.9790    6.0830    1.9490 C   0  0  0  0  0  0  0  0  0  0  0  0
    1.5450   -0.0070    1.7200 H   0  0  0  0  0  0  0  0  0  0  0  0
   -0.3440    2.6920   -1.8750 H   0  0  0  0  0  0  0  0  0  0  0  0
   -1.0630    4.5990    2.6400 H   0  0  0  0  0  0  0  0  0  0  0  0
   -1.3150    0.1800    2.0450 H   0  0  0  0  0  0  0  0  0  0  0  0
   -1.1100   -2.7120   -1.9680 H   0  0  0  0  0  0  0  0  0  0  0  0
   -2.1380    4.3550   -1.5010 H   0  0  0  0  0  0  0  0  0  0  0  0
    0.8930   -1.4440   -1.2590 H   0  0  0  0  0  0  0  0  0  0  0  0
    1.5010    2.8820    4.4420 H   0  0  0  0  0  0  0  0  0  0  0  0
   -0.2330    3.1150    4.1150 H   0  0  0  0  0  0  0  0  0  0  0  0
    0.9280    4.4080    3.7280 H   0  0  0  0  0  0  0  0  0  0  0  0
   -3.8060    6.7890    1.8720 H   0  0  0  0  0  0  0  0  0  0  0  0
   -2.0850    6.6060    2.2890 H   0  0  0  0  0  0  0  0  0  0  0  0
   -3.2350    5.3000    2.6630 H   0  0  0  0  0  0  0  0  0  0  0  0
  1  2  1  0  0  0  0
  1  3  1  0  0  0  0
  1  5  2  0  0  0  0
  1  6  2  0  0  0  0
  2  4  2  0  0  0  0
  2  7  1  0  0  0  0
  3 11  1  0  0  0  0
  3 23  1  0  0  0  0
  4  9  1  0  0  0  0
  4 18  1  0  0  0  0
  7 16  2  0  0  0  0
  7 24  1  0  0  0  0
  8 10  2  0  0  0  0
  8 12  1  0  0  0  0
  8 15  1  0  0  0  0
  9 14  2  0  0  0  0
  9 25  1  0  0  0  0
 10 11  1  0  0  0  0
 10 26  1  0  0  0  0
 11 17  2  0  0  0  0
 12 13  2  0  0  0  0
 12 19  1  0  0  0  0
 13 17  1  0  0  0  0
 13 27  1  0  0  0  0
 14 16  1  0  0  0  0
 14 20  1  0  0  0  0
 16 28  1  0  0  0  0
 17 29  1  0  0  0  0
 18 21  1  0  0  0  0
 20 22  1  0  0  0  0
 21 30  1  0  0  0  0
 21 31  1  0  0  0  0
 21 32  1  0  0  0  0
 22 33  1  0  0  0  0
 22 34  1  0  0  0  0
 22 35  1  0  0  0  0
M  END
>  <$CLUSTER>
183

>  <INDEX>
519669

$$$$
Asinex ASN 07468703
  MOE2020           3D

 46 49  0  0  0  0  0  0  0  0999 V2000
   -0.2260    0.0430   -0.1390 C   0  0  0  0  0  0  0  0  0  0  0  0
    0.8830   -0.3410   -0.8100 N   0  0  0  0  0  0  0  0  0  0  0  0
   -1.4020    0.2640   -0.8620 N   0  0  0  0  0  0  0  0  0  0  0  0
   -0.2470    0.2220    1.2010 N   0  0  0  0  0  0  0  0  0  0  0  0
   -3.9270   -0.4080   -2.0930 N   0  0  0  0  0  0  0  0  0  0  0  0
    2.0080   -0.5490   -0.0880 C   0  0  0  0  0  0  0  0  0  0  0  0
   -5.0700   -0.1840   -2.7330 C   0  0  0  0  0  0  0  0  0  0  0  0
    2.0780   -0.3910    1.2770 C   0  0  0  0  0  0  0  0  0  0  0  0
    0.9040    0.0010    1.8770 C   0  0  0  0  0  0  0  0  0  0  0  0
   -6.1510    0.2020   -1.9980 N   0  0  0  0  0  0  0  0  0  0  0  0
   -2.6020    0.6770   -0.1550 C   0  0  0  0  0  0  0  0  0  0  0  0
   -1.3960    0.0760   -2.3010 C   0  0  0  0  0  0  0  0  0  0  0  0
   -3.7800   -0.2580   -0.6320 C   0  0  0  0  0  0  0  0  0  0  0  0
   -2.6360   -0.8280   -2.6690 C   0  0  0  0  0  0  0  0  0  0  0  0
    3.2170   -0.9840   -0.8000 C   0  0  0  0  0  0  0  0  0  0  0  0
   -5.1790   -0.3340   -4.1220 C   0  0  0  0  0  0  0  0  0  0  0  0
   -7.3250    0.4320   -2.6420 C   0  0  0  0  0  0  0  0  0  0  0  0
    0.8570    0.2100    3.4080 C   0  0  0  0  0  0  0  0  0  0  0  0
    4.4010   -0.2310   -0.7540 C   0  0  0  0  0  0  0  0  0  0  0  0
    3.1930   -2.1610   -1.5650 C   0  0  0  0  0  0  0  0  0  0  0  0
   -6.3960   -0.0910   -4.7610 C   0  0  0  0  0  0  0  0  0  0  0  0
   -7.4960    0.3010   -4.0100 C   0  0  0  0  0  0  0  0  0  0  0  0
    4.3300   -2.5770   -2.2630 C   0  0  0  0  0  0  0  0  0  0  0  0
    5.5350   -0.6490   -1.4540 C   0  0  0  0  0  0  0  0  0  0  0  0
    5.5000   -1.8220   -2.2060 C   0  0  0  0  0  0  0  0  0  0  0  0
    2.9870   -0.5620    1.8350 H   0  0  0  0  0  0  0  0  0  0  0  0
   -2.8330    1.7160   -0.3900 H   0  0  0  0  0  0  0  0  0  0  0  0
   -2.4550    0.5720    0.9200 H   0  0  0  0  0  0  0  0  0  0  0  0
   -0.4730   -0.4160   -2.6080 H   0  0  0  0  0  0  0  0  0  0  0  0
   -1.4770    1.0400   -2.8020 H   0  0  0  0  0  0  0  0  0  0  0  0
   -3.6140   -1.2490   -0.2090 H   0  0  0  0  0  0  0  0  0  0  0  0
   -4.7120    0.1520   -0.2420 H   0  0  0  0  0  0  0  0  0  0  0  0
   -2.7380   -0.8300   -3.7540 H   0  0  0  0  0  0  0  0  0  0  0  0
   -2.4280   -1.8400   -2.3220 H   0  0  0  0  0  0  0  0  0  0  0  0
   -4.3190   -0.6390   -4.7000 H   0  0  0  0  0  0  0  0  0  0  0  0
   -8.1770    0.7350   -2.0510 H   0  0  0  0  0  0  0  0  0  0  0  0
   -0.1470    0.5170    3.7020 H   0  0  0  0  0  0  0  0  0  0  0  0
    1.5710    0.9830    3.6910 H   0  0  0  0  0  0  0  0  0  0  0  0
    1.1130   -0.7230    3.9100 H   0  0  0  0  0  0  0  0  0  0  0  0
    4.4350    0.6790   -0.1730 H   0  0  0  0  0  0  0  0  0  0  0  0
    2.2890   -2.7500   -1.6140 H   0  0  0  0  0  0  0  0  0  0  0  0
   -6.4810   -0.2070   -5.8310 H   0  0  0  0  0  0  0  0  0  0  0  0
   -8.4510    0.4970   -4.4760 H   0  0  0  0  0  0  0  0  0  0  0  0
    4.3020   -3.4850   -2.8470 H   0  0  0  0  0  0  0  0  0  0  0  0
    6.4410   -0.0620   -1.4130 H   0  0  0  0  0  0  0  0  0  0  0  0
    6.3790   -2.1460   -2.7440 H   0  0  0  0  0  0  0  0  0  0  0  0
  1  2  2  0  0  0  0
  1  3  1  0  0  0  0
  1  4  1  0  0  0  0
  2  6  1  0  0  0  0
  3 11  1  0  0  0  0
  3 12  1  0  0  0  0
  4  9  2  0  0  0  0
  5  7  1  0  0  0  0
  5 13  1  0  0  0  0
  5 14  1  0  0  0  0
  6  8  2  0  0  0  0
  6 15  1  0  0  0  0
  7 10  2  0  0  0  0
  7 16  1  0  0  0  0
  8  9  1  0  0  0  0
  8 26  1  0  0  0  0
  9 18  1  0  0  0  0
 10 17  1  0  0  0  0
 11 13  1  0  0  0  0
 11 27  1  0  0  0  0
 11 28  1  0  0  0  0
 12 14  1  0  0  0  0
 12 29  1  0  0  0  0
 12 30  1  0  0  0  0
 13 31  1  0  0  0  0
 13 32  1  0  0  0  0
 14 33  1  0  0  0  0
 14 34  1  0  0  0  0
 15 19  1  0  0  0  0
 15 20  2  0  0  0  0
 16 21  2  0  0  0  0
 16 35  1  0  0  0  0
 17 22  2  0  0  0  0
 17 36  1  0  0  0  0
 18 37  1  0  0  0  0
 18 38  1  0  0  0  0
 18 39  1  0  0  0  0
 19 24  2  0  0  0  0
 19 40  1  0  0  0  0
 20 23  1  0  0  0  0
 20 41  1  0  0  0  0
 21 22  1  0  0  0  0
 21 42  1  0  0  0  0
 22 43  1  0  0  0  0
 23 25  2  0  0  0  0
 23 44  1  0  0  0  0
 24 25  1  0  0  0  0
 24 45  1  0  0  0  0
 25 46  1  0  0  0  0
M  END
>  <$CLUSTER>
184

>  <INDEX>
167573

$$$$
Chemical Block A3562/0151082
  MOE2020           3D

 34 35  0  0  0  0  0  0  0  0999 V2000
   -0.4600   -0.2010    0.1570 C   0  0  0  0  0  0  0  0  0  0  0  0
   -1.7050    0.5320    1.9300 N   0  0  0  0  0  0  0  0  0  0  0  0
    1.6770    0.4000   -0.8780 C   0  0  0  0  0  0  0  0  0  0  0  0
   -2.3050   -0.4900    1.2980 N   0  0  0  0  0  0  0  0  0  0  0  0
   -1.6020   -0.9650    0.2310 C   0  0  0  0  0  0  0  0  0  0  0  0
    0.5260   -0.3680   -0.8000 N   0  0  0  0  0  0  0  0  0  0  0  0
   -0.5800    0.7060    1.2310 C   0  0  0  0  0  0  0  0  0  0  0  0
    2.5510   -0.0280   -2.0280 C   0  0  0  0  0  0  0  0  0  0  0  0
   -4.6040   -3.4770    4.5540 C   0  0  0  0  0  0  0  0  0  0  0  0
    2.0050    1.3240   -0.1380 O   0  0  0  0  0  0  0  0  0  0  0  0
   -3.4610   -3.7600    4.9720 O   0  0  0  0  0  0  0  0  0  0  0  0
    3.4440    0.9660   -2.5330 C   0  0  0  0  0  0  0  0  0  0  0  0
    2.5850   -1.2950   -2.5550 C   0  0  0  0  0  0  0  0  0  0  0  0
    4.3100   -0.6370   -4.1210 C   0  0  0  0  0  0  0  0  0  0  0  0
   -5.7380   -3.9320    4.9850 O   0  5  0  0  0  0  0  0  0  0  0  0
    4.3070    0.6480   -3.5830 C   0  0  0  0  0  0  0  0  0  0  0  0
    3.4520   -1.6080   -3.6060 C   0  0  0  0  0  0  0  0  0  0  0  0
    5.1620   -0.8560   -5.1230 F   0  0  0  0  0  0  0  0  0  0  0  0
   -3.5840   -0.9810    1.7730 C   0  0  0  0  0  0  0  0  0  0  0  0
   -3.4300   -1.9670    2.9180 C   0  0  0  0  0  0  0  0  0  0  0  0
   -4.7630   -2.4900    3.4090 C   0  0  0  0  0  0  0  0  0  0  0  0
   -1.8840   -1.7760   -0.4240 H   0  0  0  0  0  0  0  0  0  0  0  0
    0.3980   -1.0980   -1.4870 H   0  0  0  0  0  0  0  0  0  0  0  0
    0.1580    1.4600    1.4630 H   0  0  0  0  0  0  0  0  0  0  0  0
    3.4510    1.9580   -2.1050 H   0  0  0  0  0  0  0  0  0  0  0  0
    1.9350   -2.0580   -2.1530 H   0  0  0  0  0  0  0  0  0  0  0  0
    4.9740    1.4000   -3.9790 H   0  0  0  0  0  0  0  0  0  0  0  0
    3.4570   -2.6050   -4.0200 H   0  0  0  0  0  0  0  0  0  0  0  0
   -4.0980   -1.4770    0.9490 H   0  0  0  0  0  0  0  0  0  0  0  0
   -4.1800   -0.1350    2.1160 H   0  0  0  0  0  0  0  0  0  0  0  0
   -2.9230   -1.4680    3.7440 H   0  0  0  0  0  0  0  0  0  0  0  0
   -2.8270   -2.8090    2.5770 H   0  0  0  0  0  0  0  0  0  0  0  0
   -5.3660   -1.6490    3.7510 H   0  0  0  0  0  0  0  0  0  0  0  0
   -5.2710   -2.9890    2.5830 H   0  0  0  0  0  0  0  0  0  0  0  0
  1  5  2  0  0  0  0
  1  6  1  0  0  0  0
  1  7  1  0  0  0  0
  2  4  1  0  0  0  0
  2  7  2  0  0  0  0
  3  6  1  0  0  0  0
  3  8  1  0  0  0  0
  3 10  2  0  0  0  0
  4  5  1  0  0  0  0
  4 19  1  0  0  0  0
  5 22  1  0  0  0  0
  6 23  1  0  0  0  0
  7 24  1  0  0  0  0
  8 12  2  0  0  0  0
  8 13  1  0  0  0  0
  9 11  2  0  0  0  0
  9 15  1  0  0  0  0
  9 21  1  0  0  0  0
 12 16  1  0  0  0  0
 12 25  1  0  0  0  0
 13 17  2  0  0  0  0
 13 26  1  0  0  0  0
 14 16  2  0  0  0  0
 14 17  1  0  0  0  0
 14 18  1  0  0  0  0
 16 27  1  0  0  0  0
 17 28  1  0  0  0  0
 19 20  1  0  0  0  0
 19 29  1  0  0  0  0
 19 30  1  0  0  0  0
 20 21  1  0  0  0  0
 20 31  1  0  0  0  0
 20 32  1  0  0  0  0
 21 33  1  0  0  0  0
 21 34  1  0  0  0  0
M  CHG  1  15  -1
M  END
>  <$CLUSTER>
185

>  <INDEX>
116400

$$$$
Princeton Biomolecular OSSK_592875
  MOE2020           3D

 52 54  0  0  1  0  0  0  0  0999 V2000
   -1.3670   -0.3600    0.5860 C   0  0  3  0  0  0  0  0  0  0  0  0
    0.0360   -0.0550    1.1470 C   0  0  0  0  0  0  0  0  0  0  0  0
   -1.2130   -0.0380   -0.8730 C   0  0  0  0  0  0  0  0  0  0  0  0
    0.8250    0.3810    0.0710 N   0  0  0  0  0  0  0  0  0  0  0  0
    0.0920    0.3900   -1.1260 C   0  0  0  0  0  0  0  0  0  0  0  0
   -1.7600   -1.8080    0.8470 C   0  0  0  0  0  0  0  0  0  0  0  0
   -3.0950   -2.2370    0.2950 C   0  0  0  0  0  0  0  0  0  0  0  0
    0.5040    0.7470   -2.3980 C   0  0  0  0  0  0  0  0  0  0  0  0
   -2.1460   -0.1160   -1.8940 C   0  0  0  0  0  0  0  0  0  0  0  0
    0.3640   -0.1670    2.3200 O   0  0  0  0  0  0  0  0  0  0  0  0
   -3.3290   -3.7220    0.1890 C   0  0  0  0  0  0  0  0  0  0  0  0
   -2.2960    0.5270    1.1800 O   0  0  0  0  0  0  0  0  0  0  0  0
   -3.9770   -1.4360   -0.0080 O   0  0  0  0  0  0  0  0  0  0  0  0
   -4.5850   -4.1370   -0.3170 C   0  0  0  0  0  0  0  0  0  0  0  0
   -2.3830   -4.6620    0.5300 C   0  0  0  0  0  0  0  0  0  0  0  0
    2.2200    0.7630    0.1750 C   0  0  0  0  0  0  0  0  0  0  0  0
   -1.7460    0.2420   -3.1830 C   0  0  0  0  0  0  0  0  0  0  0  0
   -0.4310    0.6690   -3.4330 C   0  0  0  0  0  0  0  0  0  0  0  0
   -3.8950   -6.4430   -0.1030 C   0  0  0  0  0  0  0  0  0  0  0  0
   -4.8570   -5.4990   -0.4560 C   0  0  0  0  0  0  0  0  0  0  0  0
   -2.6600   -6.0240    0.3890 C   0  0  0  0  0  0  0  0  0  0  0  0
   -4.2830   -7.7510   -0.2890 O   0  0  0  0  0  0  0  0  0  0  0  0
   -2.7290    0.1690   -4.3080 C   0  0  0  0  0  0  0  0  0  0  0  0
   -3.3410   -8.7660    0.0540 C   0  0  0  0  0  0  0  0  0  0  0  0
    3.1520   -0.3870   -0.1690 C   0  0  0  0  0  0  0  0  0  0  0  0
   -3.9800  -10.1130   -0.2300 C   0  0  0  0  0  0  0  0  0  0  0  0
    4.6080    0.0070   -0.0720 C   0  0  0  0  0  0  0  0  0  0  0  0
   -1.7810   -1.9590    1.9260 H   0  0  0  0  0  0  0  0  0  0  0  0
   -0.9950   -2.4470    0.4050 H   0  0  0  0  0  0  0  0  0  0  0  0
    1.5160    1.0750   -2.5850 H   0  0  0  0  0  0  0  0  0  0  0  0
   -3.1560   -0.4450   -1.6980 H   0  0  0  0  0  0  0  0  0  0  0  0
   -2.0060    1.4220    0.9880 H   0  0  0  0  0  0  0  0  0  0  0  0
   -5.3280   -3.4040   -0.5940 H   0  0  0  0  0  0  0  0  0  0  0  0
   -1.4220   -4.3450    0.9080 H   0  0  0  0  0  0  0  0  0  0  0  0
    2.4210    1.0860    1.1960 H   0  0  0  0  0  0  0  0  0  0  0  0
    2.4110    1.5880   -0.5110 H   0  0  0  0  0  0  0  0  0  0  0  0
   -0.1400    0.9400   -4.4370 H   0  0  0  0  0  0  0  0  0  0  0  0
   -5.8140   -5.8220   -0.8380 H   0  0  0  0  0  0  0  0  0  0  0  0
   -1.9140   -6.7550    0.6620 H   0  0  0  0  0  0  0  0  0  0  0  0
   -3.6900   -0.1800   -3.9290 H   0  0  0  0  0  0  0  0  0  0  0  0
   -2.3640   -0.5250   -5.0650 H   0  0  0  0  0  0  0  0  0  0  0  0
   -2.8500    1.1580   -4.7490 H   0  0  0  0  0  0  0  0  0  0  0  0
   -3.0870   -8.6930    1.1110 H   0  0  0  0  0  0  0  0  0  0  0  0
   -2.4380   -8.6510   -0.5460 H   0  0  0  0  0  0  0  0  0  0  0  0
    2.9440   -0.7140   -1.1880 H   0  0  0  0  0  0  0  0  0  0  0  0
    2.9640   -1.2090    0.5220 H   0  0  0  0  0  0  0  0  0  0  0  0
   -4.8820  -10.2220    0.3730 H   0  0  0  0  0  0  0  0  0  0  0  0
   -3.2780  -10.9080    0.0200 H   0  0  0  0  0  0  0  0  0  0  0  0
   -4.2390  -10.1770   -1.2870 H   0  0  0  0  0  0  0  0  0  0  0  0
    4.8080    0.8290   -0.7590 H   0  0  0  0  0  0  0  0  0  0  0  0
    5.2340   -0.8460   -0.3340 H   0  0  0  0  0  0  0  0  0  0  0  0
    4.8320    0.3220    0.9470 H   0  0  0  0  0  0  0  0  0  0  0  0
  1  2  1  0  0  0  0
  1  3  1  0  0  0  0
  1  6  1  0  0  0  0
  1 12  1  0  0  0  0
  2  4  1  0  0  0  0
  2 10  2  0  0  0  0
  3  5  2  0  0  0  0
  3  9  1  0  0  0  0
  4  5  1  0  0  0  0
  4 16  1  0  0  0  0
  5  8  1  0  0  0  0
  6  7  1  0  0  0  0
  6 28  1  0  0  0  0
  6 29  1  0  0  0  0
  7 11  1  0  0  0  0
  7 13  2  0  0  0  0
  8 18  2  0  0  0  0
  8 30  1  0  0  0  0
  9 17  2  0  0  0  0
  9 31  1  0  0  0  0
 11 14  2  0  0  0  0
 11 15  1  0  0  0  0
 12 32  1  0  0  0  0
 14 20  1  0  0  0  0
 14 33  1  0  0  0  0
 15 21  2  0  0  0  0
 15 34  1  0  0  0  0
 16 25  1  0  0  0  0
 16 35  1  0  0  0  0
 16 36  1  0  0  0  0
 17 18  1  0  0  0  0
 17 23  1  0  0  0  0
 18 37  1  0  0  0  0
 19 20  2  0  0  0  0
 19 21  1  0  0  0  0
 19 22  1  0  0  0  0
 20 38  1  0  0  0  0
 21 39  1  0  0  0  0
 22 24  1  0  0  0  0
 23 40  1  0  0  0  0
 23 41  1  0  0  0  0
 23 42  1  0  0  0  0
 24 26  1  0  0  0  0
 24 43  1  0  0  0  0
 24 44  1  0  0  0  0
 25 27  1  0  0  0  0
 25 45  1  0  0  0  0
 25 46  1  0  0  0  0
 26 47  1  0  0  0  0
 26 48  1  0  0  0  0
 26 49  1  0  0  0  0
 27 50  1  0  0  0  0
 27 51  1  0  0  0  0
 27 52  1  0  0  0  0
M  END
>  <$CLUSTER>
186

>  <INDEX>
590712

$$$$
Chemical Block A3692/0156694
  MOE2020           3D

 41 43  0  0  0  0  0  0  0  0999 V2000
   -0.4870    0.3480   -1.6950 C   0  0  0  0  0  0  0  0  0  0  0  0
   -1.3510    1.1750   -1.0910 N   0  0  0  0  0  0  0  0  0  0  0  0
    0.3470   -0.5160   -1.0950 N   0  0  0  0  0  0  0  0  0  0  0  0
   -0.5520    0.2660    0.9770 N   0  0  0  0  0  0  0  0  0  0  0  0
   -1.3290    1.0810    0.2450 C   0  0  0  0  0  0  0  0  0  0  0  0
    8.0790    1.6320    2.8230 N   0  0  0  0  0  0  0  0  0  0  0  0
    0.2670   -0.5180    0.2500 C   0  0  0  0  0  0  0  0  0  0  0  0
    9.5450    3.2860    2.8350 N   0  0  0  0  0  0  0  0  0  0  0  0
   10.1070    2.2150    3.4800 N   0  0  0  0  0  0  0  0  0  0  0  0
    3.3550   -1.4600    1.9420 C   0  0  0  0  0  0  0  0  0  0  0  0
    9.2280    1.2390    3.4670 C   0  0  0  0  0  0  0  0  0  0  0  0
    8.3410    2.9290    2.4490 C   0  0  0  0  0  0  0  0  0  0  0  0
   -0.4240    0.3640   -3.1020 N   0  0  0  0  0  0  0  0  0  0  0  0
    6.8890    0.8700    2.5950 C   0  0  0  0  0  0  0  0  0  0  0  0
    4.5710   -0.6080    2.1480 C   0  0  0  0  0  0  0  0  0  0  0  0
    2.3990   -0.7530    1.2630 O   0  0  0  0  0  0  0  0  0  0  0  0
    3.2530   -2.6150    2.3310 O   0  0  0  0  0  0  0  0  0  0  0  0
    5.8140    1.4400    1.9160 C   0  0  0  0  0  0  0  0  0  0  0  0
    6.8050   -0.4430    3.0510 C   0  0  0  0  0  0  0  0  0  0  0  0
    4.6500    0.6980    1.6920 C   0  0  0  0  0  0  0  0  0  0  0  0
    5.6460   -1.1890    2.8310 C   0  0  0  0  0  0  0  0  0  0  0  0
   -2.2060    1.9230    0.8550 N   0  0  0  0  0  0  0  0  0  0  0  0
    1.1850   -1.4370    0.9950 C   0  0  0  0  0  0  0  0  0  0  0  0
   -1.2350    1.3070   -3.8760 C   0  0  0  0  0  0  0  0  0  0  0  0
    0.4200   -0.5450   -3.8730 C   0  0  0  0  0  0  0  0  0  0  0  0
    9.3860    0.2630    3.9020 H   0  0  0  0  0  0  0  0  0  0  0  0
    7.6530    3.5660    1.9130 H   0  0  0  0  0  0  0  0  0  0  0  0
    5.8800    2.4580    1.5620 H   0  0  0  0  0  0  0  0  0  0  0  0
    7.6390   -0.8850    3.5760 H   0  0  0  0  0  0  0  0  0  0  0  0
    3.8170    1.1410    1.1660 H   0  0  0  0  0  0  0  0  0  0  0  0
    5.5790   -2.2070    3.1850 H   0  0  0  0  0  0  0  0  0  0  0  0
   -2.2750    1.9370    1.8630 H   0  0  0  0  0  0  0  0  0  0  0  0
   -2.7880    2.5340    0.3000 H   0  0  0  0  0  0  0  0  0  0  0  0
    1.3880   -2.3210    0.3900 H   0  0  0  0  0  0  0  0  0  0  0  0
    0.7190   -1.7380    1.9330 H   0  0  0  0  0  0  0  0  0  0  0  0
   -1.8180    1.9280   -3.1960 H   0  0  0  0  0  0  0  0  0  0  0  0
   -1.9080    0.7540   -4.5310 H   0  0  0  0  0  0  0  0  0  0  0  0
   -0.5820    1.9400   -4.4770 H   0  0  0  0  0  0  0  0  0  0  0  0
    0.9720   -1.1940   -3.1930 H   0  0  0  0  0  0  0  0  0  0  0  0
    1.1220    0.0330   -4.4740 H   0  0  0  0  0  0  0  0  0  0  0  0
   -0.2040   -1.1530   -4.5280 H   0  0  0  0  0  0  0  0  0  0  0  0
  1  2  2  0  0  0  0
  1  3  1  0  0  0  0
  1 13  1  0  0  0  0
  2  5  1  0  0  0  0
  3  7  2  0  0  0  0
  4  5  2  0  0  0  0
  4  7  1  0  0  0  0
  5 22  1  0  0  0  0
  6 11  1  0  0  0  0
  6 12  1  0  0  0  0
  6 14  1  0  0  0  0
  7 23  1  0  0  0  0
  8  9  1  0  0  0  0
  8 12  2  0  0  0  0
  9 11  2  0  0  0  0
 10 15  1  0  0  0  0
 10 16  1  0  0  0  0
 10 17  2  0  0  0  0
 11 26  1  0  0  0  0
 12 27  1  0  0  0  0
 13 24  1  0  0  0  0
 13 25  1  0  0  0  0
 14 18  2  0  0  0  0
 14 19  1  0  0  0  0
 15 20  2  0  0  0  0
 15 21  1  0  0  0  0
 16 23  1  0  0  0  0
 18 20  1  0  0  0  0
 18 28  1  0  0  0  0
 19 21  2  0  0  0  0
 19 29  1  0  0  0  0
 20 30  1  0  0  0  0
 21 31  1  0  0  0  0
 22 32  1  0  0  0  0
 22 33  1  0  0  0  0
 23 34  1  0  0  0  0
 23 35  1  0  0  0  0
 24 36  1  0  0  0  0
 24 37  1  0  0  0  0
 24 38  1  0  0  0  0
 25 39  1  0  0  0  0
 25 40  1  0  0  0  0
 25 41  1  0  0  0  0
M  END
>  <$CLUSTER>
187

>  <INDEX>
118465

$$$$
InterBioScreen STOCK2S-86939
  MOE2020           3D

 47 50  0  0  1  0  0  0  0  0999 V2000
    0.7940   -2.3370   -0.3320 C   0  0  0  0  0  0  0  0  0  0  0  0
    0.9320   -1.0020   -0.4560 C   0  0  0  0  0  0  0  0  0  0  0  0
   -0.1520   -0.1380   -0.1690 N   0  0  0  0  0  0  0  0  0  0  0  0
   -1.4670   -0.6440   -0.0230 C   0  0  0  0  0  0  0  0  0  0  0  0
   -0.5060   -2.9700    0.0810 C   0  0  3  0  0  0  0  0  0  0  0  0
   -1.6500   -2.0950   -0.4110 C   0  0  0  0  0  0  0  0  0  0  0  0
    1.9390   -3.2530   -0.6170 C   0  0  0  0  0  0  0  0  0  0  0  0
   -0.5610   -3.1930    1.5940 C   0  0  0  0  0  0  0  0  0  0  0  0
   -2.4480    0.0030    0.3510 O   0  0  0  0  0  0  0  0  0  0  0  0
    0.0140    1.2840    0.0120 C   0  0  0  0  0  0  0  0  0  0  0  0
    1.8350   -4.4650   -0.4370 O   0  0  0  0  0  0  0  0  0  0  0  0
   -0.7080   -4.4950    2.0870 C   0  0  0  0  0  0  0  0  0  0  0  0
   -0.4920   -2.1300    2.5030 C   0  0  0  0  0  0  0  0  0  0  0  0
    2.2230   -0.3960   -0.9790 C   0  0  0  0  0  0  0  0  0  0  0  0
   -0.6890   -3.6670    4.3550 C   0  0  0  0  0  0  0  0  0  0  0  0
   -0.7660   -4.7310    3.4610 C   0  0  0  0  0  0  0  0  0  0  0  0
   -0.5510   -2.3680    3.8760 C   0  0  0  0  0  0  0  0  0  0  0  0
   -0.7620   -4.0270    5.6820 O   0  0  0  0  0  0  0  0  0  0  0  0
    3.2520   -2.6640   -1.0700 C   0  0  0  0  0  0  0  0  0  0  0  0
    3.0270   -1.3730   -1.8290 C   0  0  0  0  0  0  0  0  0  0  0  0
   -0.8560    2.1920   -0.6120 C   0  0  0  0  0  0  0  0  0  0  0  0
    1.0280    1.7900    0.8400 C   0  0  0  0  0  0  0  0  0  0  0  0
   -0.6890   -2.9760    6.6390 C   0  0  0  0  0  0  0  0  0  0  0  0
   -0.7030    3.5680   -0.4290 C   0  0  0  0  0  0  0  0  0  0  0  0
    1.1780    3.1670    1.0230 C   0  0  0  0  0  0  0  0  0  0  0  0
    0.3150    4.0560    0.3870 C   0  0  0  0  0  0  0  0  0  0  0  0
   -0.5950   -3.9570   -0.3730 H   0  0  0  0  0  0  0  0  0  0  0  0
   -1.7030   -2.1640   -1.4980 H   0  0  0  0  0  0  0  0  0  0  0  0
   -2.5820   -2.4590    0.0220 H   0  0  0  0  0  0  0  0  0  0  0  0
   -0.7770   -5.3240    1.3980 H   0  0  0  0  0  0  0  0  0  0  0  0
   -0.3920   -1.1180    2.1380 H   0  0  0  0  0  0  0  0  0  0  0  0
    2.8330   -0.0880   -0.1300 H   0  0  0  0  0  0  0  0  0  0  0  0
    1.9790    0.4760   -1.5860 H   0  0  0  0  0  0  0  0  0  0  0  0
   -0.8710   -5.7400    3.8310 H   0  0  0  0  0  0  0  0  0  0  0  0
   -0.4890   -1.5420    4.5690 H   0  0  0  0  0  0  0  0  0  0  0  0
    3.7590   -3.3770   -1.7200 H   0  0  0  0  0  0  0  0  0  0  0  0
    3.8730   -2.4620   -0.1980 H   0  0  0  0  0  0  0  0  0  0  0  0
    3.9910   -0.9270   -2.0750 H   0  0  0  0  0  0  0  0  0  0  0  0
    2.4800   -1.5860   -2.7470 H   0  0  0  0  0  0  0  0  0  0  0  0
   -1.6530    1.8220   -1.2410 H   0  0  0  0  0  0  0  0  0  0  0  0
    1.6990    1.1080    1.3410 H   0  0  0  0  0  0  0  0  0  0  0  0
   -0.7580   -3.3940    7.6430 H   0  0  0  0  0  0  0  0  0  0  0  0
   -1.5120   -2.2800    6.4780 H   0  0  0  0  0  0  0  0  0  0  0  0
    0.2590   -2.4500    6.5290 H   0  0  0  0  0  0  0  0  0  0  0  0
   -1.3750    4.2550   -0.9210 H   0  0  0  0  0  0  0  0  0  0  0  0
    1.9650    3.5430    1.6590 H   0  0  0  0  0  0  0  0  0  0  0  0
    0.4350    5.1200    0.5260 H   0  0  0  0  0  0  0  0  0  0  0  0
  1  2  2  0  0  0  0
  1  5  1  0  0  0  0
  1  7  1  0  0  0  0
  2  3  1  0  0  0  0
  2 14  1  0  0  0  0
  3  4  1  0  0  0  0
  3 10  1  0  0  0  0
  4  6  1  0  0  0  0
  4  9  2  0  0  0  0
  5  6  1  0  0  0  0
  5  8  1  0  0  0  0
  5 27  1  0  0  0  0
  6 28  1  0  0  0  0
  6 29  1  0  0  0  0
  7 11  2  0  0  0  0
  7 19  1  0  0  0  0
  8 12  2  0  0  0  0
  8 13  1  0  0  0  0
 10 21  2  0  0  0  0
 10 22  1  0  0  0  0
 12 16  1  0  0  0  0
 12 30  1  0  0  0  0
 13 17  2  0  0  0  0
 13 31  1  0  0  0  0
 14 20  1  0  0  0  0
 14 32  1  0  0  0  0
 14 33  1  0  0  0  0
 15 16  2  0  0  0  0
 15 17  1  0  0  0  0
 15 18  1  0  0  0  0
 16 34  1  0  0  0  0
 17 35  1  0  0  0  0
 18 23  1  0  0  0  0
 19 20  1  0  0  0  0
 19 36  1  0  0  0  0
 19 37  1  0  0  0  0
 20 38  1  0  0  0  0
 20 39  1  0  0  0  0
 21 24  1  0  0  0  0
 21 40  1  0  0  0  0
 22 25  2  0  0  0  0
 22 41  1  0  0  0  0
 23 42  1  0  0  0  0
 23 43  1  0  0  0  0
 23 44  1  0  0  0  0
 24 26  2  0  0  0  0
 24 45  1  0  0  0  0
 25 26  1  0  0  0  0
 25 46  1  0  0  0  0
 26 47  1  0  0  0  0
M  END
>  <$CLUSTER>
188

>  <INDEX>
340394

$$$$
BiotechCA 18990P
  MOE2020           3D

 33 35  0  0  0  0  0  0  0  0999 V2000
   -1.5760   -0.5300    1.6820 C   0  0  0  0  0  0  0  0  0  0  0  0
    0.1630    1.0400    1.0480 N   0  0  0  0  0  0  0  0  0  0  0  0
   -0.4970   -0.6440   -0.5990 C   0  0  0  0  0  0  0  0  0  0  0  0
   -1.4890   -1.1770    0.3610 C   0  0  0  0  0  0  0  0  0  0  0  0
    0.3140    0.4570   -0.2330 C   0  0  0  0  0  0  0  0  0  0  0  0
   -0.7660    0.5020    1.9220 C   0  0  0  0  0  0  0  0  0  0  0  0
    1.2410    0.9060   -1.1900 C   0  0  0  0  0  0  0  0  0  0  0  0
   -2.5900   -0.9450    2.7840 C   0  0  0  0  0  0  0  0  0  0  0  0
   -0.3880   -1.2550   -1.8550 C   0  0  0  0  0  0  0  0  0  0  0  0
    1.3520    0.2970   -2.4450 C   0  0  0  0  0  0  0  0  0  0  0  0
    0.5380   -0.7800   -2.7770 C   0  0  0  0  0  0  0  0  0  0  0  0
    0.9880    2.1900    1.4450 C   0  0  0  0  0  0  0  0  0  0  0  0
   -2.2140   -2.1230    0.0810 O   0  0  0  0  0  0  0  0  0  0  0  0
   -2.2590   -0.7070    3.9830 O   0  0  0  0  0  0  0  0  0  0  0  0
    2.4960    0.8930   -3.5590 Cl  0  0  0  0  0  0  0  0  0  0  0  0
    0.5820   -1.4110   -3.9510 F   0  0  0  0  0  0  0  0  0  0  0  0
   -3.6420   -1.4980    2.3520 O   0  5  0  0  0  0  0  0  0  0  0  0
    2.3310    1.7350    2.0010 C   0  0  0  0  0  0  0  0  0  0  0  0
    3.4760    1.7510    1.1940 C   0  0  0  0  0  0  0  0  0  0  0  0
    2.4350    1.2920    3.3270 C   0  0  0  0  0  0  0  0  0  0  0  0
    3.6690    0.8880    3.8430 C   0  0  0  0  0  0  0  0  0  0  0  0
    4.7100    1.3460    1.7110 C   0  0  0  0  0  0  0  0  0  0  0  0
    4.8070    0.9180    3.0350 C   0  0  0  0  0  0  0  0  0  0  0  0
   -0.8420    0.9640    2.8950 H   0  0  0  0  0  0  0  0  0  0  0  0
    1.8830    1.7410   -0.9510 H   0  0  0  0  0  0  0  0  0  0  0  0
   -1.0220   -2.0930   -2.1060 H   0  0  0  0  0  0  0  0  0  0  0  0
    0.4600    2.7600    2.2100 H   0  0  0  0  0  0  0  0  0  0  0  0
    1.1590    2.8230    0.5740 H   0  0  0  0  0  0  0  0  0  0  0  0
    3.4050    2.0780    0.1670 H   0  0  0  0  0  0  0  0  0  0  0  0
    1.5560    1.2630    3.9540 H   0  0  0  0  0  0  0  0  0  0  0  0
    3.7420    0.5530    4.8670 H   0  0  0  0  0  0  0  0  0  0  0  0
    5.5890    1.3650    1.0840 H   0  0  0  0  0  0  0  0  0  0  0  0
    5.7620    0.6100    3.4350 H   0  0  0  0  0  0  0  0  0  0  0  0
  1  4  1  0  0  0  0
  1  6  2  0  0  0  0
  1  8  1  0  0  0  0
  2  5  1  0  0  0  0
  2  6  1  0  0  0  0
  2 12  1  0  0  0  0
  3  4  1  0  0  0  0
  3  5  2  0  0  0  0
  3  9  1  0  0  0  0
  4 13  2  0  0  0  0
  5  7  1  0  0  0  0
  6 24  1  0  0  0  0
  7 10  2  0  0  0  0
  7 25  1  0  0  0  0
  8 14  2  0  0  0  0
  8 17  1  0  0  0  0
  9 11  2  0  0  0  0
  9 26  1  0  0  0  0
 10 11  1  0  0  0  0
 10 15  1  0  0  0  0
 11 16  1  0  0  0  0
 12 18  1  0  0  0  0
 12 27  1  0  0  0  0
 12 28  1  0  0  0  0
 18 19  1  0  0  0  0
 18 20  2  0  0  0  0
 19 22  2  0  0  0  0
 19 29  1  0  0  0  0
 20 21  1  0  0  0  0
 20 30  1  0  0  0  0
 21 23  2  0  0  0  0
 21 31  1  0  0  0  0
 22 23  1  0  0  0  0
 22 32  1  0  0  0  0
 23 33  1  0  0  0  0
M  CHG  1  17  -1
M  END
>  <$CLUSTER>
189

>  <INDEX>
17840

$$$$
Chemical Block A3745/0158698
  MOE2020           3D

 30 31  0  0  1  0  0  0  0  0999 V2000
    0.7530    0.4840   -0.2400 C   0  0  0  0  0  0  0  0  0  0  0  0
   -0.4810    0.0100   -0.6330 N   0  0  0  0  0  0  0  0  0  0  0  0
    1.2190    0.8330    1.3340 S   0  0  0  0  0  0  0  0  0  0  0  0
    1.7400    0.6910   -1.3720 C   0  0  0  0  0  0  0  0  0  0  0  0
   -1.5790   -2.6410   -0.4140 O   0  0  0  0  0  0  0  0  0  0  0  0
   -1.6260   -0.2900    0.2110 C   0  0  0  0  0  0  0  0  0  0  0  0
   -1.6040   -1.7280    0.7000 C   0  0  3  0  0  0  0  0  0  0  0  0
   -2.4810   -3.7200   -0.0990 C   0  0  0  0  0  0  0  0  0  0  0  0
    3.0560    0.2680   -1.3060 C   0  0  0  0  0  0  0  0  0  0  0  0
    1.2640    1.2910   -2.5710 C   0  0  0  0  0  0  0  0  0  0  0  0
   -2.8230   -2.0610    1.5580 C   0  0  0  0  0  0  0  0  0  0  0  0
   -2.8830   -3.5740    1.3540 C   0  0  0  0  0  0  0  0  0  0  0  0
    3.9230    0.4600   -2.3850 C   0  0  0  0  0  0  0  0  0  0  0  0
    2.1330    1.4820   -3.6470 C   0  0  0  0  0  0  0  0  0  0  0  0
    3.4620    1.0670   -3.5540 C   0  0  0  0  0  0  0  0  0  0  0  0
   -0.6040   -0.1470   -1.6230 H   0  0  0  0  0  0  0  0  0  0  0  0
   -2.5390   -0.1260   -0.3610 H   0  0  0  0  0  0  0  0  0  0  0  0
   -1.6130    0.3760    1.0730 H   0  0  0  0  0  0  0  0  0  0  0  0
   -0.7030   -1.8350    1.3040 H   0  0  0  0  0  0  0  0  0  0  0  0
   -1.9830   -4.6770   -0.2520 H   0  0  0  0  0  0  0  0  0  0  0  0
   -3.3640   -3.6640   -0.7360 H   0  0  0  0  0  0  0  0  0  0  0  0
    3.4170   -0.2160   -0.4110 H   0  0  0  0  0  0  0  0  0  0  0  0
    0.2320    1.5980   -2.6490 H   0  0  0  0  0  0  0  0  0  0  0  0
   -3.7230   -1.5670    1.1920 H   0  0  0  0  0  0  0  0  0  0  0  0
   -2.6650   -1.7990    2.6040 H   0  0  0  0  0  0  0  0  0  0  0  0
   -2.1820   -4.0890    2.0110 H   0  0  0  0  0  0  0  0  0  0  0  0
   -3.8890   -3.9560    1.5250 H   0  0  0  0  0  0  0  0  0  0  0  0
    4.9510    0.1380   -2.3140 H   0  0  0  0  0  0  0  0  0  0  0  0
    1.7760    1.9510   -4.5520 H   0  0  0  0  0  0  0  0  0  0  0  0
    4.1340    1.2160   -4.3870 H   0  0  0  0  0  0  0  0  0  0  0  0
  1  2  1  0  0  0  0
  1  3  2  0  0  0  0
  1  4  1  0  0  0  0
  2  6  1  0  0  0  0
  2 16  1  0  0  0  0
  4  9  2  0  0  0  0
  4 10  1  0  0  0  0
  5  7  1  0  0  0  0
  5  8  1  0  0  0  0
  6  7  1  0  0  0  0
  6 17  1  0  0  0  0
  6 18  1  0  0  0  0
  7 11  1  0  0  0  0
  7 19  1  0  0  0  0
  8 12  1  0  0  0  0
  8 20  1  0  0  0  0
  8 21  1  0  0  0  0
  9 13  1  0  0  0  0
  9 22  1  0  0  0  0
 10 14  2  0  0  0  0
 10 23  1  0  0  0  0
 11 12  1  0  0  0  0
 11 24  1  0  0  0  0
 11 25  1  0  0  0  0
 12 26  1  0  0  0  0
 12 27  1  0  0  0  0
 13 15  2  0  0  0  0
 13 28  1  0  0  0  0
 14 15  1  0  0  0  0
 14 29  1  0  0  0  0
 15 30  1  0  0  0  0
M  END
>  <$CLUSTER>
190

>  <INDEX>
119302

$$$$
Chemical Block A3695/0156801
  MOE2020           3D

 50 52  0  0  0  0  0  0  0  0999 V2000
   -0.1540   -0.2660    0.1330 C   0  0  0  0  0  0  0  0  0  0  0  0
   -1.3440    0.3240   -0.2270 N   0  0  0  0  0  0  0  0  0  0  0  0
   -2.4000   -0.1050    0.4950 N   0  0  0  0  0  0  0  0  0  0  0  0
   -0.4780   -1.1420    1.1480 C   0  0  0  0  0  0  0  0  0  0  0  0
    1.0430    0.0550   -0.4790 N   0  0  0  0  0  0  0  0  0  0  0  0
   -1.8660   -0.9980    1.3270 C   0  0  0  0  0  0  0  0  0  0  0  0
    2.2500   -0.5340   -0.1310 C   0  0  0  0  0  0  0  0  0  0  0  0
   -1.5730    1.3170   -1.2600 C   0  0  0  0  0  0  0  0  0  0  0  0
    6.3810   -2.3460   -0.9230 C   0  0  0  0  0  0  0  0  0  0  0  0
    7.1760   -1.7690    0.0640 C   0  0  0  0  0  0  0  0  0  0  0  0
    5.1580   -1.7660   -1.2630 C   0  0  0  0  0  0  0  0  0  0  0  0
    2.4460   -1.3900    0.7260 O   0  0  0  0  0  0  0  0  0  0  0  0
    4.7390   -0.5960   -0.6270 C   0  0  0  0  0  0  0  0  0  0  0  0
    3.3840    0.0100   -0.9620 C   0  0  0  0  0  0  0  0  0  0  0  0
    6.7500   -0.6140    0.7140 C   0  0  0  0  0  0  0  0  0  0  0  0
   -1.3070    2.7300   -0.7700 C   0  0  0  0  0  0  0  0  0  0  0  0
    5.5280   -0.0320    0.3760 C   0  0  0  0  0  0  0  0  0  0  0  0
   -0.8180    5.3340    0.1520 C   0  0  0  0  0  0  0  0  0  0  0  0
    6.8810   -3.4930   -1.5140 O   0  0  0  0  0  0  0  0  0  0  0  0
   -0.6680    6.5750    0.6180 F   0  0  0  0  0  0  0  0  0  0  0  0
   -0.0890    3.3640   -1.0490 C   0  0  0  0  0  0  0  0  0  0  0  0
   -2.2700    3.4070   -0.0070 C   0  0  0  0  0  0  0  0  0  0  0  0
    0.1530    4.6630   -0.5930 C   0  0  0  0  0  0  0  0  0  0  0  0
   -2.0280    4.7060    0.4470 C   0  0  0  0  0  0  0  0  0  0  0  0
    8.3650   -2.4180    0.3390 O   0  0  0  0  0  0  0  0  0  0  0  0
   -2.6460   -1.7500    2.3190 C   0  0  0  0  0  0  0  0  0  0  0  0
    6.0960   -4.1060   -2.5290 C   0  0  0  0  0  0  0  0  0  0  0  0
    9.2010   -1.8590    1.3450 C   0  0  0  0  0  0  0  0  0  0  0  0
    0.1890   -1.7970    1.6880 H   0  0  0  0  0  0  0  0  0  0  0  0
    1.0390    0.7490   -1.2120 H   0  0  0  0  0  0  0  0  0  0  0  0
   -2.6100    1.2490   -1.5880 H   0  0  0  0  0  0  0  0  0  0  0  0
   -0.9120    1.1070   -2.1010 H   0  0  0  0  0  0  0  0  0  0  0  0
    4.5360   -2.2220   -2.0180 H   0  0  0  0  0  0  0  0  0  0  0  0
    3.4410    1.0870   -0.8030 H   0  0  0  0  0  0  0  0  0  0  0  0
    3.1680   -0.1910   -2.0110 H   0  0  0  0  0  0  0  0  0  0  0  0
    7.3660   -0.1680    1.4810 H   0  0  0  0  0  0  0  0  0  0  0  0
    5.1920    0.8560    0.8910 H   0  0  0  0  0  0  0  0  0  0  0  0
    0.6670    2.8460   -1.6200 H   0  0  0  0  0  0  0  0  0  0  0  0
   -3.2050    2.9210    0.2310 H   0  0  0  0  0  0  0  0  0  0  0  0
    1.0920    5.1480   -0.8170 H   0  0  0  0  0  0  0  0  0  0  0  0
   -2.7780    5.2240    1.0260 H   0  0  0  0  0  0  0  0  0  0  0  0
   -3.6940   -1.4560    2.2560 H   0  0  0  0  0  0  0  0  0  0  0  0
   -2.2680   -1.5340    3.3180 H   0  0  0  0  0  0  0  0  0  0  0  0
   -2.5550   -2.8180    2.1190 H   0  0  0  0  0  0  0  0  0  0  0  0
    6.6100   -4.9920   -2.9010 H   0  0  0  0  0  0  0  0  0  0  0  0
    5.9470   -3.4020   -3.3480 H   0  0  0  0  0  0  0  0  0  0  0  0
    5.1290   -4.3930   -2.1170 H   0  0  0  0  0  0  0  0  0  0  0  0
   10.0970   -2.4700    1.4540 H   0  0  0  0  0  0  0  0  0  0  0  0
    8.6620   -1.8320    2.2920 H   0  0  0  0  0  0  0  0  0  0  0  0
    9.4850   -0.8460    1.0600 H   0  0  0  0  0  0  0  0  0  0  0  0
  1  2  1  0  0  0  0
  1  4  2  0  0  0  0
  1  5  1  0  0  0  0
  2  3  1  0  0  0  0
  2  8  1  0  0  0  0
  3  6  2  0  0  0  0
  4  6  1  0  0  0  0
  4 29  1  0  0  0  0
  5  7  1  0  0  0  0
  5 30  1  0  0  0  0
  6 26  1  0  0  0  0
  7 12  2  0  0  0  0
  7 14  1  0  0  0  0
  8 16  1  0  0  0  0
  8 31  1  0  0  0  0
  8 32  1  0  0  0  0
  9 10  1  0  0  0  0
  9 11  2  0  0  0  0
  9 19  1  0  0  0  0
 10 15  2  0  0  0  0
 10 25  1  0  0  0  0
 11 13  1  0  0  0  0
 11 33  1  0  0  0  0
 13 14  1  0  0  0  0
 13 17  2  0  0  0  0
 14 34  1  0  0  0  0
 14 35  1  0  0  0  0
 15 17  1  0  0  0  0
 15 36  1  0  0  0  0
 16 21  2  0  0  0  0
 16 22  1  0  0  0  0
 17 37  1  0  0  0  0
 18 20  1  0  0  0  0
 18 23  2  0  0  0  0
 18 24  1  0  0  0  0
 19 27  1  0  0  0  0
 21 23  1  0  0  0  0
 21 38  1  0  0  0  0
 22 24  2  0  0  0  0
 22 39  1  0  0  0  0
 23 40  1  0  0  0  0
 24 41  1  0  0  0  0
 25 28  1  0  0  0  0
 26 42  1  0  0  0  0
 26 43  1  0  0  0  0
 26 44  1  0  0  0  0
 27 45  1  0  0  0  0
 27 46  1  0  0  0  0
 27 47  1  0  0  0  0
 28 48  1  0  0  0  0
 28 49  1  0  0  0  0
 28 50  1  0  0  0  0
M  END
>  <$CLUSTER>
191

>  <INDEX>
118508

$$$$
Specs AN-023/41671827
  MOE2020           3D

 54 57  0  0  0  0  0  0  0  0999 V2000
   -1.3310    1.9010    0.6810 C   0  0  0  0  0  0  0  0  0  0  0  0
   -0.2330    2.3690    1.3560 C   0  0  0  0  0  0  0  0  0  0  0  0
   -1.1260    0.6490    0.1700 N   0  0  0  0  0  0  0  0  0  0  0  0
   -2.4960    2.6440    0.5540 N   0  0  0  0  0  0  0  0  0  0  0  0
    0.6900    1.3590    1.2620 N   0  0  0  0  0  0  0  0  0  0  0  0
   -1.3910    4.3750    1.8260 N   0  0  0  0  0  0  0  0  0  0  0  0
    0.1080    0.3570    0.5230 C   0  0  0  0  0  0  0  0  0  0  0  0
   -2.5700    3.9300    1.1340 C   0  0  0  0  0  0  0  0  0  0  0  0
   -0.1760    3.6580    1.9800 C   0  0  0  0  0  0  0  0  0  0  0  0
    0.7270   -0.7880    0.2400 O   0  0  0  0  0  0  0  0  0  0  0  0
   -0.5570   -5.3360   -0.7320 C   0  0  0  0  0  0  0  0  0  0  0  0
    2.0250    1.3310    1.8250 C   0  0  0  0  0  0  0  0  0  0  0  0
   -3.5820    4.6350    1.0530 O   0  0  0  0  0  0  0  0  0  0  0  0
    0.8120    4.0840    2.5720 O   0  0  0  0  0  0  0  0  0  0  0  0
   -0.4230   -3.9420   -1.1910 C   0  0  0  0  0  0  0  0  0  0  0  0
    0.0700   -3.0010   -0.2860 C   0  0  0  0  0  0  0  0  0  0  0  0
    0.1980   -1.6660   -0.6750 C   0  0  0  0  0  0  0  0  0  0  0  0
   -0.2670   -5.7210    0.3910 O   0  0  0  0  0  0  0  0  0  0  0  0
   -3.6320    2.0930   -0.1750 C   0  0  0  0  0  0  0  0  0  0  0  0
   -1.4730    5.7040    2.4220 C   0  0  0  0  0  0  0  0  0  0  0  0
    3.0520    1.9650    0.9040 C   0  0  0  0  0  0  0  0  0  0  0  0
   -1.0400   -6.1420   -1.7040 O   0  0  0  0  0  0  0  0  0  0  0  0
    4.8940    3.1490   -0.8370 C   0  0  0  0  0  0  0  0  0  0  0  0
    3.6610    1.2050   -0.0990 C   0  0  0  0  0  0  0  0  0  0  0  0
    3.3560    3.3250    1.0190 C   0  0  0  0  0  0  0  0  0  0  0  0
    4.5840    1.7960   -0.9640 C   0  0  0  0  0  0  0  0  0  0  0  0
    4.2790    3.9130    0.1530 C   0  0  0  0  0  0  0  0  0  0  0  0
   -0.7740   -3.5510   -2.4840 C   0  0  0  0  0  0  0  0  0  0  0  0
   -0.6260   -2.2200   -2.8760 C   0  0  0  0  0  0  0  0  0  0  0  0
   -0.1320   -1.2750   -1.9760 C   0  0  0  0  0  0  0  0  0  0  0  0
    5.8820    3.7840   -1.7590 C   0  0  0  0  0  0  0  0  0  0  0  0
   -1.2180   -7.5150   -1.3940 C   0  0  0  0  0  0  0  0  0  0  0  0
    2.3080    0.2940    2.0050 H   0  0  0  0  0  0  0  0  0  0  0  0
    2.0180    1.8750    2.7700 H   0  0  0  0  0  0  0  0  0  0  0  0
    0.3520   -3.3040    0.7120 H   0  0  0  0  0  0  0  0  0  0  0  0
   -3.3800    1.0990   -0.5430 H   0  0  0  0  0  0  0  0  0  0  0  0
   -3.8730    2.7420   -1.0170 H   0  0  0  0  0  0  0  0  0  0  0  0
   -4.4930    2.0270    0.4900 H   0  0  0  0  0  0  0  0  0  0  0  0
   -2.4560    6.1310    2.2250 H   0  0  0  0  0  0  0  0  0  0  0  0
   -0.7050    6.3450    1.9880 H   0  0  0  0  0  0  0  0  0  0  0  0
   -1.3190    5.6300    3.4980 H   0  0  0  0  0  0  0  0  0  0  0  0
    3.4170    0.1580   -0.2050 H   0  0  0  0  0  0  0  0  0  0  0  0
    2.8750    3.9220    1.7800 H   0  0  0  0  0  0  0  0  0  0  0  0
    5.0580    1.2040   -1.7330 H   0  0  0  0  0  0  0  0  0  0  0  0
    4.5170    4.9620    0.2500 H   0  0  0  0  0  0  0  0  0  0  0  0
   -1.1600   -4.2790   -3.1820 H   0  0  0  0  0  0  0  0  0  0  0  0
   -0.8940   -1.9210   -3.8780 H   0  0  0  0  0  0  0  0  0  0  0  0
   -0.0050   -0.2470   -2.2830 H   0  0  0  0  0  0  0  0  0  0  0  0
    6.2550    3.0380   -2.4610 H   0  0  0  0  0  0  0  0  0  0  0  0
    6.7130    4.1860   -1.1800 H   0  0  0  0  0  0  0  0  0  0  0  0
    5.3990    4.5910   -2.3090 H   0  0  0  0  0  0  0  0  0  0  0  0
   -1.6110   -8.0370   -2.2670 H   0  0  0  0  0  0  0  0  0  0  0  0
   -1.9200   -7.6120   -0.5660 H   0  0  0  0  0  0  0  0  0  0  0  0
   -0.2600   -7.9510   -1.1110 H   0  0  0  0  0  0  0  0  0  0  0  0
  1  2  2  0  0  0  0
  1  3  1  0  0  0  0
  1  4  1  0  0  0  0
  2  5  1  0  0  0  0
  2  9  1  0  0  0  0
  3  7  2  0  0  0  0
  4  8  1  0  0  0  0
  4 19  1  0  0  0  0
  5  7  1  0  0  0  0
  5 12  1  0  0  0  0
  6  8  1  0  0  0  0
  6  9  1  0  0  0  0
  6 20  1  0  0  0  0
  7 10  1  0  0  0  0
  8 13  2  0  0  0  0
  9 14  2  0  0  0  0
 10 17  1  0  0  0  0
 11 15  1  0  0  0  0
 11 18  2  0  0  0  0
 11 22  1  0  0  0  0
 12 21  1  0  0  0  0
 12 33  1  0  0  0  0
 12 34  1  0  0  0  0
 15 16  2  0  0  0  0
 15 28  1  0  0  0  0
 16 17  1  0  0  0  0
 16 35  1  0  0  0  0
 17 30  2  0  0  0  0
 19 36  1  0  0  0  0
 19 37  1  0  0  0  0
 19 38  1  0  0  0  0
 20 39  1  0  0  0  0
 20 40  1  0  0  0  0
 20 41  1  0  0  0  0
 21 24  2  0  0  0  0
 21 25  1  0  0  0  0
 22 32  1  0  0  0  0
 23 26  2  0  0  0  0
 23 27  1  0  0  0  0
 23 31  1  0  0  0  0
 24 26  1  0  0  0  0
 24 42  1  0  0  0  0
 25 27  2  0  0  0  0
 25 43  1  0  0  0  0
 26 44  1  0  0  0  0
 27 45  1  0  0  0  0
 28 29  2  0  0  0  0
 28 46  1  0  0  0  0
 29 30  1  0  0  0  0
 29 47  1  0  0  0  0
 30 48  1  0  0  0  0
 31 49  1  0  0  0  0
 31 50  1  0  0  0  0
 31 51  1  0  0  0  0
 32 52  1  0  0  0  0
 32 53  1  0  0  0  0
 32 54  1  0  0  0  0
M  END
>  <$CLUSTER>
192

>  <INDEX>
525237

$$$$
Akos AKO47766
  MOE2020           3D

 44 46  0  0  0  0  0  0  0  0999 V2000
   -1.5590   -0.7200    1.3370 C   0  0  0  0  0  0  0  0  0  0  0  0
   -0.3020   -0.9680    1.1010 N   0  0  0  0  0  0  0  0  0  0  0  0
   -2.2200   -1.4170    2.3010 N   0  0  0  0  0  0  0  0  0  0  0  0
   -2.3690    0.3260    0.5890 C   0  0  0  0  0  0  0  0  0  0  0  0
    0.3700   -0.2420    0.1020 C   0  0  0  0  0  0  0  0  0  0  0  0
   -1.8670   -2.4600    3.1900 C   0  0  0  0  0  0  0  0  0  0  0  0
   -1.1990   -4.5440    4.9920 C   0  0  0  0  0  0  0  0  0  0  0  0
    1.7650    1.1720   -1.8760 C   0  0  0  0  0  0  0  0  0  0  0  0
    1.0510    0.9380    0.4230 C   0  0  0  0  0  0  0  0  0  0  0  0
    0.4170   -0.7220   -1.2120 C   0  0  0  0  0  0  0  0  0  0  0  0
   -2.7930   -2.9430    4.1340 C   0  0  0  0  0  0  0  0  0  0  0  0
   -0.5950   -3.0570    3.1800 C   0  0  0  0  0  0  0  0  0  0  0  0
   -0.2630   -4.0860    4.0690 C   0  0  0  0  0  0  0  0  0  0  0  0
   -2.4680   -3.9700    5.0240 C   0  0  0  0  0  0  0  0  0  0  0  0
    1.1060   -0.0140   -2.2000 C   0  0  0  0  0  0  0  0  0  0  0  0
    1.7410    1.6470   -0.5640 C   0  0  0  0  0  0  0  0  0  0  0  0
   -0.9970   -5.5390    5.9090 O   0  0  0  0  0  0  0  0  0  0  0  0
   -3.5440    0.8280    1.0180 C   0  0  0  0  0  0  0  0  0  0  0  0
   -1.7640    0.8050   -0.6170 C   0  0  0  0  0  0  0  0  0  0  0  0
    2.4950    1.9320   -2.9350 C   0  0  0  0  0  0  0  0  0  0  0  0
    0.2850   -6.1550    5.9160 C   0  0  0  0  0  0  0  0  0  0  0  0
   -4.2120    1.8040    0.2710 C   0  0  0  0  0  0  0  0  0  0  0  0
   -2.4330    1.7800   -1.3620 C   0  0  0  0  0  0  0  0  0  0  0  0
   -3.6580    2.2790   -0.9180 C   0  0  0  0  0  0  0  0  0  0  0  0
   -3.1810   -1.1230    2.4060 H   0  0  0  0  0  0  0  0  0  0  0  0
    1.0430    1.3030    1.4400 H   0  0  0  0  0  0  0  0  0  0  0  0
   -0.0830   -1.6460   -1.4640 H   0  0  0  0  0  0  0  0  0  0  0  0
   -3.7810   -2.5080    4.1710 H   0  0  0  0  0  0  0  0  0  0  0  0
    0.1430   -2.7140    2.4700 H   0  0  0  0  0  0  0  0  0  0  0  0
    0.7230   -4.5260    4.0390 H   0  0  0  0  0  0  0  0  0  0  0  0
   -3.2010   -4.3190    5.7370 H   0  0  0  0  0  0  0  0  0  0  0  0
    1.1280   -0.3850   -3.2140 H   0  0  0  0  0  0  0  0  0  0  0  0
    2.2560    2.5620   -0.3110 H   0  0  0  0  0  0  0  0  0  0  0  0
   -3.9720    0.4750    1.9440 H   0  0  0  0  0  0  0  0  0  0  0  0
   -0.8090    0.4200   -0.9450 H   0  0  0  0  0  0  0  0  0  0  0  0
    2.4020    1.4090   -3.8870 H   0  0  0  0  0  0  0  0  0  0  0  0
    3.5480    2.0110   -2.6650 H   0  0  0  0  0  0  0  0  0  0  0  0
    2.0680    2.9310   -3.0250 H   0  0  0  0  0  0  0  0  0  0  0  0
    0.3140   -6.9250    6.6870 H   0  0  0  0  0  0  0  0  0  0  0  0
    1.0480   -5.4040    6.1230 H   0  0  0  0  0  0  0  0  0  0  0  0
    0.4760   -6.6080    4.9430 H   0  0  0  0  0  0  0  0  0  0  0  0
   -5.1600    2.1910    0.6160 H   0  0  0  0  0  0  0  0  0  0  0  0
   -2.0020    2.1470   -2.2820 H   0  0  0  0  0  0  0  0  0  0  0  0
   -4.1760    3.0320   -1.4940 H   0  0  0  0  0  0  0  0  0  0  0  0
  1  2  2  0  0  0  0
  1  3  1  0  0  0  0
  1  4  1  0  0  0  0
  2  5  1  0  0  0  0
  3  6  1  0  0  0  0
  3 25  1  0  0  0  0
  4 18  2  0  0  0  0
  4 19  1  0  0  0  0
  5  9  1  0  0  0  0
  5 10  2  0  0  0  0
  6 11  1  0  0  0  0
  6 12  2  0  0  0  0
  7 13  2  0  0  0  0
  7 14  1  0  0  0  0
  7 17  1  0  0  0  0
  8 15  2  0  0  0  0
  8 16  1  0  0  0  0
  8 20  1  0  0  0  0
  9 16  2  0  0  0  0
  9 26  1  0  0  0  0
 10 15  1  0  0  0  0
 10 27  1  0  0  0  0
 11 14  2  0  0  0  0
 11 28  1  0  0  0  0
 12 13  1  0  0  0  0
 12 29  1  0  0  0  0
 13 30  1  0  0  0  0
 14 31  1  0  0  0  0
 15 32  1  0  0  0  0
 16 33  1  0  0  0  0
 17 21  1  0  0  0  0
 18 22  1  0  0  0  0
 18 34  1  0  0  0  0
 19 23  2  0  0  0  0
 19 35  1  0  0  0  0
 20 36  1  0  0  0  0
 20 37  1  0  0  0  0
 20 38  1  0  0  0  0
 21 39  1  0  0  0  0
 21 40  1  0  0  0  0
 21 41  1  0  0  0  0
 22 24  2  0  0  0  0
 22 42  1  0  0  0  0
 23 24  1  0  0  0  0
 23 43  1  0  0  0  0
 24 44  1  0  0  0  0
M  END
>  <$CLUSTER>
193

>  <INDEX>
124887

$$$$
Asinex ASN 01269328
  MOE2020           3D

 59 61  0  0  0  0  0  0  0  0999 V2000
    2.8130   -0.1680   -0.5560 C   0  0  0  0  0  0  0  0  0  0  0  0
    0.5270    0.2320    0.2290 N   0  3  0  0  0  0  0  0  0  0  0  0
    2.8290   -1.5270   -0.4490 N   0  0  0  0  0  0  0  0  0  0  0  0
    1.9530    0.5590    0.4690 C   0  0  0  0  0  0  0  0  0  0  0  0
   -2.1360   -0.3680   -0.2050 C   0  0  0  0  0  0  0  0  0  0  0  0
    3.4970    0.4100   -1.4220 O   0  0  0  0  0  0  0  0  0  0  0  0
   -1.5500    0.7220   -0.8350 C   0  0  0  0  0  0  0  0  0  0  0  0
   -1.3690   -1.1520    0.6460 C   0  0  0  0  0  0  0  0  0  0  0  0
   -3.5140   -0.6790   -0.4310 N   0  0  0  0  0  0  0  0  0  0  0  0
   -0.0300   -0.8320    0.8530 C   0  0  0  0  0  0  0  0  0  0  0  0
   -0.2070    1.0080   -0.6010 C   0  0  0  0  0  0  0  0  0  0  0  0
    3.6440   -2.3840   -1.3920 C   0  0  0  0  0  0  0  0  0  0  0  0
    2.0410   -2.3250    0.5800 C   0  0  0  0  0  0  0  0  0  0  0  0
   -4.3140    0.1540   -1.3300 C   0  0  0  0  0  0  0  0  0  0  0  0
   -4.2190   -1.8050    0.1850 C   0  0  0  0  0  0  0  0  0  0  0  0
    2.9470   -3.1010    1.5390 C   0  0  0  0  0  0  0  0  0  0  0  0
    3.1770   -2.2280   -2.8410 C   0  0  0  0  0  0  0  0  0  0  0  0
    5.1410   -2.1030   -1.2480 C   0  0  0  0  0  0  0  0  0  0  0  0
    0.9790   -3.2260   -0.0550 C   0  0  0  0  0  0  0  0  0  0  0  0
    5.9650   -2.9220   -2.2080 C   0  0  0  0  0  0  0  0  0  0  0  0
    0.2180   -4.0230    0.9520 C   0  0  0  0  0  0  0  0  0  0  0  0
    2.1760   -3.9010    2.5420 C   0  0  0  0  0  0  0  0  0  0  0  0
    4.0040   -3.0450   -3.7950 C   0  0  0  0  0  0  0  0  0  0  0  0
    5.4940   -2.7500   -3.6490 C   0  0  0  0  0  0  0  0  0  0  0  0
    1.1440   -4.8070    1.8760 C   0  0  0  0  0  0  0  0  0  0  0  0
    2.1020    1.6340    0.3720 H   0  0  0  0  0  0  0  0  0  0  0  0
    2.2360    0.2420    1.4730 H   0  0  0  0  0  0  0  0  0  0  0  0
   -2.1310    1.3430   -1.5010 H   0  0  0  0  0  0  0  0  0  0  0  0
   -1.8080   -2.0040    1.1440 H   0  0  0  0  0  0  0  0  0  0  0  0
    0.5690   -1.4380    1.5170 H   0  0  0  0  0  0  0  0  0  0  0  0
    0.2520    1.8570   -1.0860 H   0  0  0  0  0  0  0  0  0  0  0  0
    3.4800   -3.4250   -1.1120 H   0  0  0  0  0  0  0  0  0  0  0  0
    1.5050   -1.5890    1.1790 H   0  0  0  0  0  0  0  0  0  0  0  0
   -3.6940    0.9570   -1.7300 H   0  0  0  0  0  0  0  0  0  0  0  0
   -5.1520    0.5820   -0.7790 H   0  0  0  0  0  0  0  0  0  0  0  0
   -4.6920   -0.4560   -2.1500 H   0  0  0  0  0  0  0  0  0  0  0  0
   -3.5330   -2.3540    0.8300 H   0  0  0  0  0  0  0  0  0  0  0  0
   -4.5940   -2.4690   -0.5940 H   0  0  0  0  0  0  0  0  0  0  0  0
   -5.0540   -1.4310    0.7770 H   0  0  0  0  0  0  0  0  0  0  0  0
    3.5800   -2.3910    2.0710 H   0  0  0  0  0  0  0  0  0  0  0  0
    3.5710   -3.7790    0.9570 H   0  0  0  0  0  0  0  0  0  0  0  0
    3.2510   -1.1780   -3.1230 H   0  0  0  0  0  0  0  0  0  0  0  0
    2.1380   -2.5510   -2.9120 H   0  0  0  0  0  0  0  0  0  0  0  0
    5.4470   -2.3410   -0.2290 H   0  0  0  0  0  0  0  0  0  0  0  0
    5.3210   -1.0460   -1.4430 H   0  0  0  0  0  0  0  0  0  0  0  0
    1.4720   -3.9130   -0.7430 H   0  0  0  0  0  0  0  0  0  0  0  0
    0.2770   -2.6010   -0.6070 H   0  0  0  0  0  0  0  0  0  0  0  0
    5.8840   -3.9740   -1.9340 H   0  0  0  0  0  0  0  0  0  0  0  0
    7.0060   -2.6070   -2.1370 H   0  0  0  0  0  0  0  0  0  0  0  0
   -0.4320   -4.7230    0.4280 H   0  0  0  0  0  0  0  0  0  0  0  0
   -0.3880   -3.3450    1.5530 H   0  0  0  0  0  0  0  0  0  0  0  0
    1.6610   -3.2180    3.2170 H   0  0  0  0  0  0  0  0  0  0  0  0
    2.8720   -4.5180    3.1110 H   0  0  0  0  0  0  0  0  0  0  0  0
    3.6970   -2.8140   -4.8150 H   0  0  0  0  0  0  0  0  0  0  0  0
    3.8320   -4.1030   -3.5940 H   0  0  0  0  0  0  0  0  0  0  0  0
    6.0540   -3.4340   -4.2870 H   0  0  0  0  0  0  0  0  0  0  0  0
    5.6830   -1.7230   -3.9620 H   0  0  0  0  0  0  0  0  0  0  0  0
    1.6650   -5.5670    1.2930 H   0  0  0  0  0  0  0  0  0  0  0  0
    0.5460   -5.2890    2.6490 H   0  0  0  0  0  0  0  0  0  0  0  0
  1  3  1  0  0  0  0
  1  4  1  0  0  0  0
  1  6  2  0  0  0  0
  2  4  1  0  0  0  0
  2 10  2  0  0  0  0
  2 11  1  0  0  0  0
  3 12  1  0  0  0  0
  3 13  1  0  0  0  0
  4 26  1  0  0  0  0
  4 27  1  0  0  0  0
  5  7  1  0  0  0  0
  5  8  2  0  0  0  0
  5  9  1  0  0  0  0
  7 11  2  0  0  0  0
  7 28  1  0  0  0  0
  8 10  1  0  0  0  0
  8 29  1  0  0  0  0
  9 14  1  0  0  0  0
  9 15  1  0  0  0  0
 10 30  1  0  0  0  0
 11 31  1  0  0  0  0
 12 17  1  0  0  0  0
 12 18  1  0  0  0  0
 12 32  1  0  0  0  0
 13 16  1  0  0  0  0
 13 19  1  0  0  0  0
 13 33  1  0  0  0  0
 14 34  1  0  0  0  0
 14 35  1  0  0  0  0
 14 36  1  0  0  0  0
 15 37  1  0  0  0  0
 15 38  1  0  0  0  0
 15 39  1  0  0  0  0
 16 22  1  0  0  0  0
 16 40  1  0  0  0  0
 16 41  1  0  0  0  0
 17 23  1  0  0  0  0
 17 42  1  0  0  0  0
 17 43  1  0  0  0  0
 18 20  1  0  0  0  0
 18 44  1  0  0  0  0
 18 45  1  0  0  0  0
 19 21  1  0  0  0  0
 19 46  1  0  0  0  0
 19 47  1  0  0  0  0
 20 24  1  0  0  0  0
 20 48  1  0  0  0  0
 20 49  1  0  0  0  0
 21 25  1  0  0  0  0
 21 50  1  0  0  0  0
 21 51  1  0  0  0  0
 22 25  1  0  0  0  0
 22 52  1  0  0  0  0
 22 53  1  0  0  0  0
 23 24  1  0  0  0  0
 23 54  1  0  0  0  0
 23 55  1  0  0  0  0
 24 56  1  0  0  0  0
 24 57  1  0  0  0  0
 25 58  1  0  0  0  0
 25 59  1  0  0  0  0
M  CHG  1   2   1
M  END
>  <$CLUSTER>
194

>  <INDEX>
125495

$$$$
Asinex BAS 02324695
  MOE2020           3D

 44 48  0  0  0  0  0  0  0  0999 V2000
   -0.1850    0.2830    0.9520 C   0  0  0  0  0  0  0  0  0  0  0  0
   -0.5770    0.7040   -0.3560 C   0  0  0  0  0  0  0  0  0  0  0  0
    0.6670   -0.7780    1.0860 N   0  0  0  0  0  0  0  0  0  0  0  0
   -0.0080   -0.0560   -1.3660 C   0  0  0  0  0  0  0  0  0  0  0  0
   -0.5240    0.7730    2.1140 N   0  0  0  0  0  0  0  0  0  0  0  0
    0.8470   -1.1240   -1.2410 N   0  0  0  0  0  0  0  0  0  0  0  0
    0.8350   -0.9160    2.4360 C   0  0  0  0  0  0  0  0  0  0  0  0
   -0.5190    0.5200   -2.8950 S   0  0  0  0  0  0  0  0  0  0  0  0
    1.1730   -1.4700   -0.0200 C   0  0  0  0  0  0  0  0  0  0  0  0
   -1.4250    1.7430   -0.8020 C   0  0  0  0  0  0  0  0  0  0  0  0
    0.1290    0.0040    3.0660 N   0  0  0  0  0  0  0  0  0  0  0  0
   -1.4660    1.7510   -2.1860 C   0  0  0  0  0  0  0  0  0  0  0  0
    1.8370   -2.1360    3.1390 S   0  0  0  0  0  0  0  0  0  0  0  0
    0.2430   -2.1480    5.4120 C   0  0  0  0  0  0  0  0  0  0  0  0
   -0.6250   -1.1100    5.4360 N   0  0  0  0  0  0  0  0  0  0  0  0
   -0.0810   -3.2950    5.6960 O   0  0  0  0  0  0  0  0  0  0  0  0
    1.6350   -1.7890    4.9000 C   0  0  0  0  0  0  0  0  0  0  0  0
   -1.9700   -1.0160    5.8240 C   0  0  0  0  0  0  0  0  0  0  0  0
   -4.6650   -0.7450    6.5690 C   0  0  0  0  0  0  0  0  0  0  0  0
   -2.1720    2.7450    0.0230 C   0  0  0  0  0  0  0  0  0  0  0  0
   -2.2730    2.7020   -3.0140 C   0  0  0  0  0  0  0  0  0  0  0  0
   -5.9380   -0.5350    6.9050 F   0  0  0  0  0  0  0  0  0  0  0  0
   -2.7020   -2.1270    6.2550 C   0  0  0  0  0  0  0  0  0  0  0  0
   -2.6080    0.2330    5.7720 C   0  0  0  0  0  0  0  0  0  0  0  0
   -4.0430   -1.9900    6.6260 C   0  0  0  0  0  0  0  0  0  0  0  0
   -3.9480    0.3670    6.1420 C   0  0  0  0  0  0  0  0  0  0  0  0
   -3.2480    3.4740   -0.7970 C   0  0  0  0  0  0  0  0  0  0  0  0
   -2.7190    3.9070   -2.1720 C   0  0  0  0  0  0  0  0  0  0  0  0
    1.8430   -2.3030    0.1350 H   0  0  0  0  0  0  0  0  0  0  0  0
   -0.2300   -0.2380    5.1140 H   0  0  0  0  0  0  0  0  0  0  0  0
    1.8060   -0.7260    5.0680 H   0  0  0  0  0  0  0  0  0  0  0  0
    2.3720   -2.3680    5.4570 H   0  0  0  0  0  0  0  0  0  0  0  0
   -1.4660    3.4800    0.4100 H   0  0  0  0  0  0  0  0  0  0  0  0
   -2.6520    2.2290    0.8550 H   0  0  0  0  0  0  0  0  0  0  0  0
   -3.1540    2.1860   -3.3960 H   0  0  0  0  0  0  0  0  0  0  0  0
   -1.6670    3.0530   -3.8490 H   0  0  0  0  0  0  0  0  0  0  0  0
   -2.2290   -3.0970    6.3020 H   0  0  0  0  0  0  0  0  0  0  0  0
   -2.0560    1.1010    5.4420 H   0  0  0  0  0  0  0  0  0  0  0  0
   -4.5990   -2.8540    6.9580 H   0  0  0  0  0  0  0  0  0  0  0  0
   -4.4270    1.3340    6.0960 H   0  0  0  0  0  0  0  0  0  0  0  0
   -3.5710    4.3590   -0.2480 H   0  0  0  0  0  0  0  0  0  0  0  0
   -4.0970    2.8050   -0.9400 H   0  0  0  0  0  0  0  0  0  0  0  0
   -3.5090    4.4370   -2.7040 H   0  0  0  0  0  0  0  0  0  0  0  0
   -1.8680    4.5730   -2.0290 H   0  0  0  0  0  0  0  0  0  0  0  0
  1  2  1  0  0  0  0
  1  3  1  0  0  0  0
  1  5  2  0  0  0  0
  2  4  2  0  0  0  0
  2 10  1  0  0  0  0
  3  7  1  0  0  0  0
  3  9  1  0  0  0  0
  4  6  1  0  0  0  0
  4  8  1  0  0  0  0
  5 11  1  0  0  0  0
  6  9  2  0  0  0  0
  7 11  2  0  0  0  0
  7 13  1  0  0  0  0
  8 12  1  0  0  0  0
  9 29  1  0  0  0  0
 10 12  2  0  0  0  0
 10 20  1  0  0  0  0
 12 21  1  0  0  0  0
 13 17  1  0  0  0  0
 14 15  1  0  0  0  0
 14 16  2  0  0  0  0
 14 17  1  0  0  0  0
 15 18  1  0  0  0  0
 15 30  1  0  0  0  0
 17 31  1  0  0  0  0
 17 32  1  0  0  0  0
 18 23  2  0  0  0  0
 18 24  1  0  0  0  0
 19 22  1  0  0  0  0
 19 25  2  0  0  0  0
 19 26  1  0  0  0  0
 20 27  1  0  0  0  0
 20 33  1  0  0  0  0
 20 34  1  0  0  0  0
 21 28  1  0  0  0  0
 21 35  1  0  0  0  0
 21 36  1  0  0  0  0
 23 25  1  0  0  0  0
 23 37  1  0  0  0  0
 24 26  2  0  0  0  0
 24 38  1  0  0  0  0
 25 39  1  0  0  0  0
 26 40  1  0  0  0  0
 27 28  1  0  0  0  0
 27 41  1  0  0  0  0
 27 42  1  0  0  0  0
 28 43  1  0  0  0  0
 28 44  1  0  0  0  0
M  END
>  <$CLUSTER>
195

>  <INDEX>
177866

$$$$
Asinex ASN 02532959
  MOE2020           3D

 41 44  0  0  0  0  0  0  0  0999 V2000
   -2.3680   -0.1850   -4.4910 C   0  0  0  0  0  0  0  0  0  0  0  0
    1.4220   -0.4220    0.7890 S   0  0  0  0  0  0  0  0  0  0  0  0
   -0.2220   -0.4340    0.3200 C   0  0  0  0  0  0  0  0  0  0  0  0
   -1.8450    1.0680   -4.5710 O   0  0  0  0  0  0  0  0  0  0  0  0
   -2.6080   -0.5770   -3.2630 N   0  0  0  0  0  0  0  0  0  0  0  0
    1.2350   -2.0690    1.2170 C   0  0  0  0  0  0  0  0  0  0  0  0
    0.0310   -2.5530    1.0130 N   0  0  0  0  0  0  0  0  0  0  0  0
   -0.8190   -1.5970    0.4890 N   0  0  0  0  0  0  0  0  0  0  0  0
   -1.7970    1.3830   -3.2650 C   0  0  0  0  0  0  0  0  0  0  0  0
   -2.2250    0.4720   -2.4490 N   0  0  0  0  0  0  0  0  0  0  0  0
   -2.5840   -0.9030   -5.7680 C   0  0  0  0  0  0  0  0  0  0  0  0
   -0.8590    0.6820   -0.1900 N   0  0  0  0  0  0  0  0  0  0  0  0
   -0.3010    1.9360   -0.3960 C   0  0  0  0  0  0  0  0  0  0  0  0
   -1.1550    3.0110   -2.7870 S   0  0  0  0  0  0  0  0  0  0  0  0
   -3.1190   -2.2020   -5.8110 C   0  0  0  0  0  0  0  0  0  0  0  0
    2.3260   -2.8610    1.7630 C   0  0  0  0  0  0  0  0  0  0  0  0
    0.8480    2.3060   -0.1740 O   0  0  0  0  0  0  0  0  0  0  0  0
   -1.3180    2.8920   -0.9680 C   0  0  0  0  0  0  0  0  0  0  0  0
   -3.4570   -2.8410   -4.6460 O   0  0  0  0  0  0  0  0  0  0  0  0
   -2.2550   -0.2910   -6.9900 C   0  0  0  0  0  0  0  0  0  0  0  0
   -3.3170   -2.8660   -7.0270 C   0  0  0  0  0  0  0  0  0  0  0  0
    2.0860   -4.2060    2.0890 C   0  0  0  0  0  0  0  0  0  0  0  0
    3.6070   -2.3370    1.9760 C   0  0  0  0  0  0  0  0  0  0  0  0
   -2.4520   -0.9530   -8.2060 C   0  0  0  0  0  0  0  0  0  0  0  0
   -2.9830   -2.2390   -8.2240 C   0  0  0  0  0  0  0  0  0  0  0  0
    3.1020   -5.0060    2.6150 C   0  0  0  0  0  0  0  0  0  0  0  0
    4.6240   -3.1390    2.5030 C   0  0  0  0  0  0  0  0  0  0  0  0
    4.3720   -4.4720    2.8220 C   0  0  0  0  0  0  0  0  0  0  0  0
   -1.8320    0.5730   -0.4390 H   0  0  0  0  0  0  0  0  0  0  0  0
   -1.1650    3.8790   -0.5310 H   0  0  0  0  0  0  0  0  0  0  0  0
   -2.3190    2.5370   -0.7220 H   0  0  0  0  0  0  0  0  0  0  0  0
   -3.8160   -3.7250   -4.7570 H   0  0  0  0  0  0  0  0  0  0  0  0
   -1.8430    0.7070   -6.9900 H   0  0  0  0  0  0  0  0  0  0  0  0
   -3.7290   -3.8640   -7.0370 H   0  0  0  0  0  0  0  0  0  0  0  0
    1.1040   -4.6260    1.9310 H   0  0  0  0  0  0  0  0  0  0  0  0
    3.8110   -1.3050    1.7310 H   0  0  0  0  0  0  0  0  0  0  0  0
   -2.1910   -0.4650   -9.1330 H   0  0  0  0  0  0  0  0  0  0  0  0
   -3.1360   -2.7490   -9.1640 H   0  0  0  0  0  0  0  0  0  0  0  0
    2.9040   -6.0390    2.8610 H   0  0  0  0  0  0  0  0  0  0  0  0
    5.6080   -2.7240    2.6630 H   0  0  0  0  0  0  0  0  0  0  0  0
    5.1590   -5.0890    3.2290 H   0  0  0  0  0  0  0  0  0  0  0  0
  1  4  1  0  0  0  0
  1  5  2  0  0  0  0
  1 11  1  0  0  0  0
  2  3  1  0  0  0  0
  2  6  1  0  0  0  0
  3  8  2  0  0  0  0
  3 12  1  0  0  0  0
  4  9  1  0  0  0  0
  5 10  1  0  0  0  0
  6  7  2  0  0  0  0
  6 16  1  0  0  0  0
  7  8  1  0  0  0  0
  9 10  2  0  0  0  0
  9 14  1  0  0  0  0
 11 15  2  0  0  0  0
 11 20  1  0  0  0  0
 12 13  1  0  0  0  0
 12 29  1  0  0  0  0
 13 17  2  0  0  0  0
 13 18  1  0  0  0  0
 14 18  1  0  0  0  0
 15 19  1  0  0  0  0
 15 21  1  0  0  0  0
 16 22  2  0  0  0  0
 16 23  1  0  0  0  0
 18 30  1  0  0  0  0
 18 31  1  0  0  0  0
 19 32  1  0  0  0  0
 20 24  2  0  0  0  0
 20 33  1  0  0  0  0
 21 25  2  0  0  0  0
 21 34  1  0  0  0  0
 22 26  1  0  0  0  0
 22 35  1  0  0  0  0
 23 27  2  0  0  0  0
 23 36  1  0  0  0  0
 24 25  1  0  0  0  0
 24 37  1  0  0  0  0
 25 38  1  0  0  0  0
 26 28  2  0  0  0  0
 26 39  1  0  0  0  0
 27 28  1  0  0  0  0
 27 40  1  0  0  0  0
 28 41  1  0  0  0  0
M  END
>  <$CLUSTER>
196

>  <INDEX>
126786

$$$$
Asinex ASN 02593200
  MOE2020           3D

 52 55  0  0  0  0  0  0  0  0999 V2000
   -0.0330   -0.8140    0.1050 N   0  0  0  0  0  0  0  0  0  0  0  0
    0.7170   -0.2360   -0.9230 C   0  0  0  0  0  0  0  0  0  0  0  0
    1.4820   -1.1620   -1.4700 N   0  0  0  0  0  0  0  0  0  0  0  0
    0.3980   -2.1310    0.1350 C   0  0  0  0  0  0  0  0  0  0  0  0
    1.2980   -2.3360   -0.7990 N   0  0  0  0  0  0  0  0  0  0  0  0
    0.7560    1.1750   -1.3090 C   0  0  0  0  0  0  0  0  0  0  0  0
   -1.0160   -0.1800    0.9120 C   0  0  0  0  0  0  0  0  0  0  0  0
    2.8390   -3.5000    0.6720 N   0  3  0  0  0  0  0  0  0  0  0  0
   -0.3020   -3.3860    1.1130 S   0  0  0  0  0  0  0  0  0  0  0  0
    5.0790   -2.0570   -0.4960 O   0  0  0  0  0  0  0  0  0  0  0  0
    1.0080    2.1810   -0.3660 C   0  0  0  0  0  0  0  0  0  0  0  0
    0.5850    1.5300   -2.6540 C   0  0  0  0  0  0  0  0  0  0  0  0
    1.0590    3.5200   -0.7580 C   0  0  0  0  0  0  0  0  0  0  0  0
    0.6370    2.8700   -3.0430 C   0  0  0  0  0  0  0  0  0  0  0  0
    0.8700    3.8640   -2.0950 C   0  0  0  0  0  0  0  0  0  0  0  0
    0.7150   -4.8080    0.6600 C   0  0  0  0  0  0  0  0  0  0  0  0
    2.1390   -4.7010    1.1980 C   0  0  0  0  0  0  0  0  0  0  0  0
    4.0830   -3.1820    1.4670 C   0  0  0  0  0  0  0  0  0  0  0  0
    3.1620   -3.5650   -0.8030 C   0  0  0  0  0  0  0  0  0  0  0  0
    4.7770   -1.9140    0.9080 C   0  0  0  0  0  0  0  0  0  0  0  0
    3.8800   -2.2960   -1.2650 C   0  0  0  0  0  0  0  0  0  0  0  0
   -1.9370    0.7000    0.3270 C   0  0  0  0  0  0  0  0  0  0  0  0
   -1.0650   -0.4150    2.2910 C   0  0  0  0  0  0  0  0  0  0  0  0
    0.9180    5.2990   -2.5090 C   0  0  0  0  0  0  0  0  0  0  0  0
   -2.9000    1.3310    1.1170 C   0  0  0  0  0  0  0  0  0  0  0  0
   -2.0310    0.2210    3.0740 C   0  0  0  0  0  0  0  0  0  0  0  0
   -2.9480    1.0920    2.4880 C   0  0  0  0  0  0  0  0  0  0  0  0
    2.1740   -2.7480    0.7840 H   0  0  0  0  0  0  0  0  0  0  0  0
    1.1640    1.9190    0.6700 H   0  0  0  0  0  0  0  0  0  0  0  0
    0.4120    0.7630   -3.3940 H   0  0  0  0  0  0  0  0  0  0  0  0
    1.2450    4.2900   -0.0240 H   0  0  0  0  0  0  0  0  0  0  0  0
    0.4960    3.1360   -4.0800 H   0  0  0  0  0  0  0  0  0  0  0  0
    0.7560   -4.8770   -0.4270 H   0  0  0  0  0  0  0  0  0  0  0  0
    0.2550   -5.7100    1.0640 H   0  0  0  0  0  0  0  0  0  0  0  0
    2.1020   -4.6390    2.2860 H   0  0  0  0  0  0  0  0  0  0  0  0
    2.6950   -5.5910    0.9030 H   0  0  0  0  0  0  0  0  0  0  0  0
    4.7720   -4.0240    1.4060 H   0  0  0  0  0  0  0  0  0  0  0  0
    3.8090   -3.0110    2.5080 H   0  0  0  0  0  0  0  0  0  0  0  0
    2.2350   -3.6750   -1.3660 H   0  0  0  0  0  0  0  0  0  0  0  0
    3.8040   -4.4260   -0.9890 H   0  0  0  0  0  0  0  0  0  0  0  0
    4.1160   -1.0580    1.0430 H   0  0  0  0  0  0  0  0  0  0  0  0
    5.7050   -1.7460    1.4550 H   0  0  0  0  0  0  0  0  0  0  0  0
    4.1490   -2.4040   -2.3160 H   0  0  0  0  0  0  0  0  0  0  0  0
    3.2080   -1.4460   -1.1470 H   0  0  0  0  0  0  0  0  0  0  0  0
   -1.9020    0.8900   -0.7360 H   0  0  0  0  0  0  0  0  0  0  0  0
   -0.3560   -1.0880    2.7500 H   0  0  0  0  0  0  0  0  0  0  0  0
    1.1090    5.9230   -1.6360 H   0  0  0  0  0  0  0  0  0  0  0  0
   -0.0360    5.5810   -2.9550 H   0  0  0  0  0  0  0  0  0  0  0  0
    1.7160    5.4400   -3.2380 H   0  0  0  0  0  0  0  0  0  0  0  0
   -3.6100    2.0070    0.6630 H   0  0  0  0  0  0  0  0  0  0  0  0
   -2.0680    0.0370    4.1380 H   0  0  0  0  0  0  0  0  0  0  0  0
   -3.6950    1.5810    3.0960 H   0  0  0  0  0  0  0  0  0  0  0  0
  1  2  1  0  0  0  0
  1  4  1  0  0  0  0
  1  7  1  0  0  0  0
  2  3  2  0  0  0  0
  2  6  1  0  0  0  0
  3  5  1  0  0  0  0
  4  5  2  0  0  0  0
  4  9  1  0  0  0  0
  6 11  2  0  0  0  0
  6 12  1  0  0  0  0
  7 22  2  0  0  0  0
  7 23  1  0  0  0  0
  8 17  1  0  0  0  0
  8 18  1  0  0  0  0
  8 19  1  0  0  0  0
  8 28  1  0  0  0  0
  9 16  1  0  0  0  0
 10 20  1  0  0  0  0
 10 21  1  0  0  0  0
 11 13  1  0  0  0  0
 11 29  1  0  0  0  0
 12 14  2  0  0  0  0
 12 30  1  0  0  0  0
 13 15  2  0  0  0  0
 13 31  1  0  0  0  0
 14 15  1  0  0  0  0
 14 32  1  0  0  0  0
 15 24  1  0  0  0  0
 16 17  1  0  0  0  0
 16 33  1  0  0  0  0
 16 34  1  0  0  0  0
 17 35  1  0  0  0  0
 17 36  1  0  0  0  0
 18 20  1  0  0  0  0
 18 37  1  0  0  0  0
 18 38  1  0  0  0  0
 19 21  1  0  0  0  0
 19 39  1  0  0  0  0
 19 40  1  0  0  0  0
 20 41  1  0  0  0  0
 20 42  1  0  0  0  0
 21 43  1  0  0  0  0
 21 44  1  0  0  0  0
 22 25  1  0  0  0  0
 22 45  1  0  0  0  0
 23 26  2  0  0  0  0
 23 46  1  0  0  0  0
 24 47  1  0  0  0  0
 24 48  1  0  0  0  0
 24 49  1  0  0  0  0
 25 27  2  0  0  0  0
 25 50  1  0  0  0  0
 26 27  1  0  0  0  0
 26 51  1  0  0  0  0
 27 52  1  0  0  0  0
M  CHG  1   8   1
M  END
>  <$CLUSTER>
197

>  <INDEX>
127152

$$$$
Chem T&I SHCLME-034490
  MOE2020           3D

 42 44  0  0  0  0  0  0  0  0999 V2000
    0.4960    0.3850   -0.9920 N   0  0  0  0  0  0  0  0  0  0  0  0
   -0.4310    0.2870    0.0290 C   0  0  0  0  0  0  0  0  0  0  0  0
   -1.1750    1.3790    0.0260 N   0  0  0  0  0  0  0  0  0  0  0  0
    0.2280    1.5780   -1.6140 C   0  0  0  0  0  0  0  0  0  0  0  0
   -0.7700    2.1800   -1.0120 N   0  0  0  0  0  0  0  0  0  0  0  0
   -0.5530   -0.8020    0.9860 C   0  0  0  0  0  0  0  0  0  0  0  0
    1.1200    2.1790   -2.9710 S   0  0  0  0  0  0  0  0  0  0  0  0
    1.5400   -0.5710   -1.3130 C   0  0  0  0  0  0  0  0  0  0  0  0
   -0.4610   -1.5300    3.2980 N   0  0  0  0  0  0  0  0  0  0  0  0
    2.8210   -0.3080   -0.5400 C   0  0  0  0  0  0  0  0  0  0  0  0
    3.4260   -1.1870    0.2400 C   0  0  0  0  0  0  0  0  0  0  0  0
    0.2940    3.7580   -3.2700 C   0  0  0  0  0  0  0  0  0  0  0  0
   -0.3500   -0.5770    2.3440 C   0  0  0  0  0  0  0  0  0  0  0  0
   -0.2070    4.8350   -1.0270 C   0  0  0  0  0  0  0  0  0  0  0  0
    0.5860    4.7860   -2.1800 C   0  0  0  0  0  0  0  0  0  0  0  0
    0.0720    5.7650   -0.0240 C   0  0  0  0  0  0  0  0  0  0  0  0
   -0.9170   -2.0920    0.5980 C   0  0  0  0  0  0  0  0  0  0  0  0
   -0.6420    5.9110    1.1470 O   0  0  0  0  0  0  0  0  0  0  0  0
    1.9470    6.5880   -1.3020 C   0  0  0  0  0  0  0  0  0  0  0  0
   -0.8020   -2.7680    2.8770 C   0  0  0  0  0  0  0  0  0  0  0  0
    1.6720    5.6600   -2.3070 C   0  0  0  0  0  0  0  0  0  0  0  0
    1.1470    6.6420   -0.1610 C   0  0  0  0  0  0  0  0  0  0  0  0
   -1.7530    5.0430    1.3370 C   0  0  0  0  0  0  0  0  0  0  0  0
   -1.0400   -3.0970    1.5530 C   0  0  0  0  0  0  0  0  0  0  0  0
    1.7560   -0.5090   -2.3800 H   0  0  0  0  0  0  0  0  0  0  0  0
    1.1840   -1.5730   -1.0710 H   0  0  0  0  0  0  0  0  0  0  0  0
    3.2710    0.6690   -0.6350 H   0  0  0  0  0  0  0  0  0  0  0  0
    4.3360   -0.9160    0.7540 H   0  0  0  0  0  0  0  0  0  0  0  0
    3.0100   -2.1760    0.3630 H   0  0  0  0  0  0  0  0  0  0  0  0
   -0.7820    3.5880   -3.3110 H   0  0  0  0  0  0  0  0  0  0  0  0
    0.6350    4.1560   -4.2260 H   0  0  0  0  0  0  0  0  0  0  0  0
   -0.0870    0.4230    2.6570 H   0  0  0  0  0  0  0  0  0  0  0  0
   -1.0360    4.1520   -0.9130 H   0  0  0  0  0  0  0  0  0  0  0  0
   -1.1030   -2.3110   -0.4430 H   0  0  0  0  0  0  0  0  0  0  0  0
    2.7810    7.2660   -1.4080 H   0  0  0  0  0  0  0  0  0  0  0  0
   -0.8950   -3.5480    3.6180 H   0  0  0  0  0  0  0  0  0  0  0  0
    2.2990    5.6160   -3.1850 H   0  0  0  0  0  0  0  0  0  0  0  0
    1.3600    7.3620    0.6150 H   0  0  0  0  0  0  0  0  0  0  0  0
   -2.2260    5.2620    2.2940 H   0  0  0  0  0  0  0  0  0  0  0  0
   -1.4110    4.0080    1.3290 H   0  0  0  0  0  0  0  0  0  0  0  0
   -2.4740    5.1940    0.5330 H   0  0  0  0  0  0  0  0  0  0  0  0
   -1.3130   -4.1030    1.2700 H   0  0  0  0  0  0  0  0  0  0  0  0
  1  2  1  0  0  0  0
  1  4  1  0  0  0  0
  1  8  1  0  0  0  0
  2  3  2  0  0  0  0
  2  6  1  0  0  0  0
  3  5  1  0  0  0  0
  4  5  2  0  0  0  0
  4  7  1  0  0  0  0
  6 13  2  0  0  0  0
  6 17  1  0  0  0  0
  7 12  1  0  0  0  0
  8 10  1  0  0  0  0
  8 25  1  0  0  0  0
  8 26  1  0  0  0  0
  9 13  1  0  0  0  0
  9 20  2  0  0  0  0
 10 11  2  0  0  0  0
 10 27  1  0  0  0  0
 11 28  1  0  0  0  0
 11 29  1  0  0  0  0
 12 15  1  0  0  0  0
 12 30  1  0  0  0  0
 12 31  1  0  0  0  0
 13 32  1  0  0  0  0
 14 15  2  0  0  0  0
 14 16  1  0  0  0  0
 14 33  1  0  0  0  0
 15 21  1  0  0  0  0
 16 18  1  0  0  0  0
 16 22  2  0  0  0  0
 17 24  2  0  0  0  0
 17 34  1  0  0  0  0
 18 23  1  0  0  0  0
 19 21  2  0  0  0  0
 19 22  1  0  0  0  0
 19 35  1  0  0  0  0
 20 24  1  0  0  0  0
 20 36  1  0  0  0  0
 21 37  1  0  0  0  0
 22 38  1  0  0  0  0
 23 39  1  0  0  0  0
 23 40  1  0  0  0  0
 23 41  1  0  0  0  0
 24 42  1  0  0  0  0
M  END
>  <$CLUSTER>
198

>  <INDEX>
632741

$$$$
Asinex ASN 03109564
  MOE2020           3D

 22 23  0  0  0  0  0  0  0  0999 V2000
   -0.3840    0.6480   -0.3020 C   0  0  0  0  0  0  0  0  0  0  0  0
    0.4410   -0.2900    0.2780 C   0  0  0  0  0  0  0  0  0  0  0  0
   -1.5610    0.0630   -0.8480 C   0  0  0  0  0  0  0  0  0  0  0  0
   -1.6750   -1.2560   -0.7150 N   0  0  0  0  0  0  0  0  0  0  0  0
   -0.3320   -1.8160    0.0880 S   0  0  0  0  0  0  0  0  0  0  0  0
   -2.5710    0.8640   -1.5070 C   0  0  0  0  0  0  0  0  0  0  0  0
   -0.1210    2.0270   -0.3640 N   0  0  0  0  0  0  0  0  0  0  0  0
    1.7130   -0.2100    0.9490 C   0  0  0  0  0  0  0  0  0  0  0  0
   -2.2230    2.2090   -1.5180 N   0  0  0  0  0  0  0  0  0  0  0  0
   -1.0520    2.7040   -0.9630 C   0  0  0  0  0  0  0  0  0  0  0  0
   -3.6000    0.4080   -1.9920 O   0  0  0  0  0  0  0  0  0  0  0  0
    2.3500   -1.1410    1.4270 O   0  0  0  0  0  0  0  0  0  0  0  0
    2.1590    1.0720    1.0000 O   0  0  0  0  0  0  0  0  0  0  0  0
    3.4180    1.3310    1.6370 C   0  0  0  0  0  0  0  0  0  0  0  0
    3.7110    2.8170    1.5780 C   0  0  0  0  0  0  0  0  0  0  0  0
   -2.8580    2.8620   -1.9540 H   0  0  0  0  0  0  0  0  0  0  0  0
   -0.8980    3.7700   -1.0380 H   0  0  0  0  0  0  0  0  0  0  0  0
    4.2070    0.7830    1.1210 H   0  0  0  0  0  0  0  0  0  0  0  0
    3.3730    1.0090    2.6780 H   0  0  0  0  0  0  0  0  0  0  0  0
    3.7560    3.1370    0.5370 H   0  0  0  0  0  0  0  0  0  0  0  0
    4.6670    3.0180    2.0620 H   0  0  0  0  0  0  0  0  0  0  0  0
    2.9210    3.3640    2.0930 H   0  0  0  0  0  0  0  0  0  0  0  0
  1  2  2  0  0  0  0
  1  3  1  0  0  0  0
  1  7  1  0  0  0  0
  2  5  1  0  0  0  0
  2  8  1  0  0  0  0
  3  4  2  0  0  0  0
  3  6  1  0  0  0  0
  4  5  1  0  0  0  0
  6  9  1  0  0  0  0
  6 11  2  0  0  0  0
  7 10  2  0  0  0  0
  8 12  2  0  0  0  0
  8 13  1  0  0  0  0
  9 10  1  0  0  0  0
  9 16  1  0  0  0  0
 10 17  1  0  0  0  0
 13 14  1  0  0  0  0
 14 15  1  0  0  0  0
 14 18  1  0  0  0  0
 14 19  1  0  0  0  0
 15 20  1  0  0  0  0
 15 21  1  0  0  0  0
 15 22  1  0  0  0  0
M  END
>  <$CLUSTER>
199

>  <INDEX>
128770

$$$$
Asinex ASN 03272736
  MOE2020           3D

 56 59  0  0  0  0  0  0  0  0999 V2000
   -0.9690   -1.3550    2.0070 C   0  0  0  0  0  0  0  0  0  0  0  0
   -1.9180   -2.4830    3.9610 N   0  0  0  0  0  0  0  0  0  0  0  0
   -2.1780   -1.8230    2.7820 C   0  0  0  0  0  0  0  0  0  0  0  0
   -0.6590   -2.7250    4.4450 C   0  0  0  0  0  0  0  0  0  0  0  0
    0.5170    1.0120    0.1900 C   0  0  0  0  0  0  0  0  0  0  0  0
    0.2370   -1.6090    2.5130 C   0  0  0  0  0  0  0  0  0  0  0  0
   -0.1170   -0.2130   -0.0310 N   0  0  0  0  0  0  0  0  0  0  0  0
    0.4160   -2.3120    3.7640 C   0  0  0  0  0  0  0  0  0  0  0  0
   -1.3190   -0.6320    0.7140 C   0  0  0  0  0  0  0  0  0  0  0  0
   -0.4960   -3.4210    5.6840 C   0  0  0  0  0  0  0  0  0  0  0  0
    0.0470    1.7710    1.2130 N   0  0  0  0  0  0  0  0  0  0  0  0
    1.8100    1.6340   -0.6860 S   0  0  0  0  0  0  0  0  0  0  0  0
    0.3650   -1.1860   -1.0320 C   0  0  0  0  0  0  0  0  0  0  0  0
   -3.3210   -1.6230    2.3800 O   0  0  0  0  0  0  0  0  0  0  0  0
    0.7870   -3.6640    6.1690 C   0  0  0  0  0  0  0  0  0  0  0  0
    1.7390   -2.5500    4.2410 C   0  0  0  0  0  0  0  0  0  0  0  0
    1.9030   -3.2290    5.4510 C   0  0  0  0  0  0  0  0  0  0  0  0
    0.1690    2.9470    1.9230 C   0  0  0  0  0  0  0  0  0  0  0  0
    0.4130    5.3500    3.3820 C   0  0  0  0  0  0  0  0  0  0  0  0
   -0.3350   -1.0300   -2.3750 C   0  0  0  0  0  0  0  0  0  0  0  0
    0.4660    6.4590    4.1160 F   0  0  0  0  0  0  0  0  0  0  0  0
    1.1460    3.8880    1.5920 C   0  0  0  0  0  0  0  0  0  0  0  0
   -0.6870    3.2340    3.0020 C   0  0  0  0  0  0  0  0  0  0  0  0
    1.2670    5.0810    2.3150 C   0  0  0  0  0  0  0  0  0  0  0  0
   -0.5680    4.4240    3.7270 C   0  0  0  0  0  0  0  0  0  0  0  0
   -1.6940   -3.8740    6.4340 C   0  0  0  0  0  0  0  0  0  0  0  0
    0.9690   -4.3930    7.4620 C   0  0  0  0  0  0  0  0  0  0  0  0
    0.2770   -0.3200   -3.4110 C   0  0  0  0  0  0  0  0  0  0  0  0
   -1.6130   -1.5690   -2.5660 C   0  0  0  0  0  0  0  0  0  0  0  0
   -2.2570   -1.4290   -3.7980 C   0  0  0  0  0  0  0  0  0  0  0  0
   -0.3700   -0.1800   -4.6430 C   0  0  0  0  0  0  0  0  0  0  0  0
   -1.6340   -0.7360   -4.8360 C   0  0  0  0  0  0  0  0  0  0  0  0
   -2.7050   -2.8100    4.5040 H   0  0  0  0  0  0  0  0  0  0  0  0
    1.1110   -1.2790    1.9710 H   0  0  0  0  0  0  0  0  0  0  0  0
   -1.9090    0.2520    0.9550 H   0  0  0  0  0  0  0  0  0  0  0  0
   -1.9070   -1.3010    0.0850 H   0  0  0  0  0  0  0  0  0  0  0  0
   -0.7150    1.2560    1.6310 H   0  0  0  0  0  0  0  0  0  0  0  0
    0.1830   -2.1930   -0.6570 H   0  0  0  0  0  0  0  0  0  0  0  0
    1.4350   -1.0390   -1.1760 H   0  0  0  0  0  0  0  0  0  0  0  0
    2.5970   -2.2120    3.6780 H   0  0  0  0  0  0  0  0  0  0  0  0
    2.8960   -3.4180    5.8320 H   0  0  0  0  0  0  0  0  0  0  0  0
    1.8170    3.6930    0.7680 H   0  0  0  0  0  0  0  0  0  0  0  0
   -1.4510    2.5210    3.2760 H   0  0  0  0  0  0  0  0  0  0  0  0
    2.0280    5.7980    2.0430 H   0  0  0  0  0  0  0  0  0  0  0  0
   -1.2350    4.6240    4.5520 H   0  0  0  0  0  0  0  0  0  0  0  0
   -2.5940   -3.5880    5.8890 H   0  0  0  0  0  0  0  0  0  0  0  0
   -1.7030   -3.4090    7.4200 H   0  0  0  0  0  0  0  0  0  0  0  0
   -1.6650   -4.9580    6.5440 H   0  0  0  0  0  0  0  0  0  0  0  0
   -0.0070   -4.6510    7.8740 H   0  0  0  0  0  0  0  0  0  0  0  0
    1.5040   -3.7560    8.1660 H   0  0  0  0  0  0  0  0  0  0  0  0
    1.5420   -5.3040    7.2880 H   0  0  0  0  0  0  0  0  0  0  0  0
    1.2510    0.1210   -3.2600 H   0  0  0  0  0  0  0  0  0  0  0  0
   -2.1020   -2.0940   -1.7590 H   0  0  0  0  0  0  0  0  0  0  0  0
   -3.2370   -1.8570   -3.9470 H   0  0  0  0  0  0  0  0  0  0  0  0
    0.1100    0.3600   -5.4460 H   0  0  0  0  0  0  0  0  0  0  0  0
   -2.1310   -0.6300   -5.7890 H   0  0  0  0  0  0  0  0  0  0  0  0
  1  3  1  0  0  0  0
  1  6  2  0  0  0  0
  1  9  1  0  0  0  0
  2  3  1  0  0  0  0
  2  4  1  0  0  0  0
  2 33  1  0  0  0  0
  3 14  2  0  0  0  0
  4  8  1  0  0  0  0
  4 10  2  0  0  0  0
  5  7  1  0  0  0  0
  5 11  1  0  0  0  0
  5 12  2  0  0  0  0
  6  8  1  0  0  0  0
  6 34  1  0  0  0  0
  7  9  1  0  0  0  0
  7 13  1  0  0  0  0
  8 16  2  0  0  0  0
  9 35  1  0  0  0  0
  9 36  1  0  0  0  0
 10 15  1  0  0  0  0
 10 26  1  0  0  0  0
 11 18  1  0  0  0  0
 11 37  1  0  0  0  0
 13 20  1  0  0  0  0
 13 38  1  0  0  0  0
 13 39  1  0  0  0  0
 15 17  2  0  0  0  0
 15 27  1  0  0  0  0
 16 17  1  0  0  0  0
 16 40  1  0  0  0  0
 17 41  1  0  0  0  0
 18 22  2  0  0  0  0
 18 23  1  0  0  0  0
 19 21  1  0  0  0  0
 19 24  2  0  0  0  0
 19 25  1  0  0  0  0
 20 28  1  0  0  0  0
 20 29  2  0  0  0  0
 22 24  1  0  0  0  0
 22 42  1  0  0  0  0
 23 25  2  0  0  0  0
 23 43  1  0  0  0  0
 24 44  1  0  0  0  0
 25 45  1  0  0  0  0
 26 46  1  0  0  0  0
 26 47  1  0  0  0  0
 26 48  1  0  0  0  0
 27 49  1  0  0  0  0
 27 50  1  0  0  0  0
 27 51  1  0  0  0  0
 28 31  2  0  0  0  0
 28 52  1  0  0  0  0
 29 30  1  0  0  0  0
 29 53  1  0  0  0  0
 30 32  2  0  0  0  0
 30 54  1  0  0  0  0
 31 32  1  0  0  0  0
 31 55  1  0  0  0  0
 32 56  1  0  0  0  0
M  END
>  <$CLUSTER>
200

>  <INDEX>
130652

$$$$
Asinex ASN 03365393
  MOE2020           3D

 58 60  0  0  0  0  0  0  0  0999 V2000
    2.0000   -1.3230   -0.8940 C   0  0  0  0  0  0  0  0  0  0  0  0
    3.4820   -1.5090   -1.0040 C   0  0  0  0  0  0  0  0  0  0  0  0
    3.8960   -2.6390   -1.6710 N   0  0  0  0  0  0  0  0  0  0  0  0
    1.1960   -2.2400   -1.4380 C   0  0  0  0  0  0  0  0  0  0  0  0
    0.1210    0.0980   -0.0240 N   0  0  0  0  0  0  0  0  0  0  0  0
    1.5880   -0.0580   -0.1480 C   0  0  0  0  0  0  0  0  0  0  0  0
   -0.6470    0.6210   -1.0740 C   0  0  0  0  0  0  0  0  0  0  0  0
    3.0460   -3.5640   -2.2170 C   0  0  0  0  0  0  0  0  0  0  0  0
    1.7210   -3.4000   -2.1220 C   0  0  0  0  0  0  0  0  0  0  0  0
    3.5790   -4.7090   -2.8920 C   0  0  0  0  0  0  0  0  0  0  0  0
    0.8110   -4.3470   -2.6800 C   0  0  0  0  0  0  0  0  0  0  0  0
    2.7070   -5.6450   -3.4440 C   0  0  0  0  0  0  0  0  0  0  0  0
    1.3270   -5.4650   -3.3400 C   0  0  0  0  0  0  0  0  0  0  0  0
   -2.3000    0.9310   -1.0530 S   0  0  0  0  0  0  0  0  0  0  0  0
    4.2750   -0.7000   -0.5270 O   0  0  0  0  0  0  0  0  0  0  0  0
   -0.4870   -0.2890    1.2870 C   0  0  0  0  0  0  0  0  0  0  0  0
    0.0060    0.9170   -2.2290 N   0  0  0  0  0  0  0  0  0  0  0  0
    3.2530   -6.8450   -4.1500 C   0  0  0  0  0  0  0  0  0  0  0  0
    0.3940   -6.4700   -3.9360 C   0  0  0  0  0  0  0  0  0  0  0  0
   -0.3210    1.4330   -3.4990 C   0  0  0  0  0  0  0  0  0  0  0  0
   -0.2190    0.7780    2.3510 C   0  0  0  0  0  0  0  0  0  0  0  0
   -0.0630   -1.6750    1.7830 C   0  0  0  0  0  0  0  0  0  0  0  0
   -0.7460    0.3370   -4.4610 C   0  0  0  0  0  0  0  0  0  0  0  0
   -1.0940    0.8730   -5.8450 C   0  0  0  0  0  0  0  0  0  0  0  0
   -1.5140   -0.2270   -6.7940 C   0  0  0  0  0  0  0  0  0  0  0  0
   -0.4840   -1.5450    3.2640 C   0  0  0  0  0  0  0  0  0  0  0  0
   -0.5840   -0.0630    3.6240 C   0  0  0  0  0  0  0  0  0  0  0  0
    4.8890   -2.7960   -1.7640 H   0  0  0  0  0  0  0  0  0  0  0  0
    0.1260   -2.1120   -1.3650 H   0  0  0  0  0  0  0  0  0  0  0  0
    1.9830    0.8040   -0.6850 H   0  0  0  0  0  0  0  0  0  0  0  0
    2.0180   -0.0910    0.8530 H   0  0  0  0  0  0  0  0  0  0  0  0
    4.6470   -4.8460   -2.9720 H   0  0  0  0  0  0  0  0  0  0  0  0
   -0.2560   -4.2020   -2.5940 H   0  0  0  0  0  0  0  0  0  0  0  0
   -1.5600   -0.3530    1.1090 H   0  0  0  0  0  0  0  0  0  0  0  0
    0.9920    0.7120   -2.1580 H   0  0  0  0  0  0  0  0  0  0  0  0
    4.3420   -6.8140   -4.1300 H   0  0  0  0  0  0  0  0  0  0  0  0
    2.9080   -6.8460   -5.1840 H   0  0  0  0  0  0  0  0  0  0  0  0
    2.9060   -7.7500   -3.6500 H   0  0  0  0  0  0  0  0  0  0  0  0
   -0.6360   -6.1620   -3.7550 H   0  0  0  0  0  0  0  0  0  0  0  0
    0.5670   -7.4440   -3.4770 H   0  0  0  0  0  0  0  0  0  0  0  0
    0.5700   -6.5370   -5.0100 H   0  0  0  0  0  0  0  0  0  0  0  0
    0.5510    1.9430   -3.9080 H   0  0  0  0  0  0  0  0  0  0  0  0
   -1.1400    2.1440   -3.3910 H   0  0  0  0  0  0  0  0  0  0  0  0
   -0.8670    1.6470    2.2330 H   0  0  0  0  0  0  0  0  0  0  0  0
    0.8220    1.1000    2.3560 H   0  0  0  0  0  0  0  0  0  0  0  0
    1.0100   -1.8360    1.6760 H   0  0  0  0  0  0  0  0  0  0  0  0
   -0.6030   -2.4730    1.2740 H   0  0  0  0  0  0  0  0  0  0  0  0
   -1.6220   -0.1660   -4.0510 H   0  0  0  0  0  0  0  0  0  0  0  0
    0.0710   -0.3780   -4.5590 H   0  0  0  0  0  0  0  0  0  0  0  0
   -0.2190    1.3770   -6.2570 H   0  0  0  0  0  0  0  0  0  0  0  0
   -1.9130    1.5860   -5.7500 H   0  0  0  0  0  0  0  0  0  0  0  0
   -0.7020   -0.9470   -6.8970 H   0  0  0  0  0  0  0  0  0  0  0  0
   -1.7450    0.2030   -7.7690 H   0  0  0  0  0  0  0  0  0  0  0  0
   -2.3970   -0.7290   -6.4000 H   0  0  0  0  0  0  0  0  0  0  0  0
    0.2600   -2.0260    3.8990 H   0  0  0  0  0  0  0  0  0  0  0  0
   -1.4520   -2.0230    3.4120 H   0  0  0  0  0  0  0  0  0  0  0  0
   -1.6000    0.1710    3.9420 H   0  0  0  0  0  0  0  0  0  0  0  0
    0.1120    0.1680    4.4310 H   0  0  0  0  0  0  0  0  0  0  0  0
  1  2  1  0  0  0  0
  1  4  2  0  0  0  0
  1  6  1  0  0  0  0
  2  3  1  0  0  0  0
  2 15  2  0  0  0  0
  3  8  1  0  0  0  0
  3 28  1  0  0  0  0
  4  9  1  0  0  0  0
  4 29  1  0  0  0  0
  5  6  1  0  0  0  0
  5  7  1  0  0  0  0
  5 16  1  0  0  0  0
  6 30  1  0  0  0  0
  6 31  1  0  0  0  0
  7 14  2  0  0  0  0
  7 17  1  0  0  0  0
  8  9  2  0  0  0  0
  8 10  1  0  0  0  0
  9 11  1  0  0  0  0
 10 12  2  0  0  0  0
 10 32  1  0  0  0  0
 11 13  2  0  0  0  0
 11 33  1  0  0  0  0
 12 13  1  0  0  0  0
 12 18  1  0  0  0  0
 13 19  1  0  0  0  0
 16 21  1  0  0  0  0
 16 22  1  0  0  0  0
 16 34  1  0  0  0  0
 17 20  1  0  0  0  0
 17 35  1  0  0  0  0
 18 36  1  0  0  0  0
 18 37  1  0  0  0  0
 18 38  1  0  0  0  0
 19 39  1  0  0  0  0
 19 40  1  0  0  0  0
 19 41  1  0  0  0  0
 20 23  1  0  0  0  0
 20 42  1  0  0  0  0
 20 43  1  0  0  0  0
 21 27  1  0  0  0  0
 21 44  1  0  0  0  0
 21 45  1  0  0  0  0
 22 26  1  0  0  0  0
 22 46  1  0  0  0  0
 22 47  1  0  0  0  0
 23 24  1  0  0  0  0
 23 48  1  0  0  0  0
 23 49  1  0  0  0  0
 24 25  1  0  0  0  0
 24 50  1  0  0  0  0
 24 51  1  0  0  0  0
 25 52  1  0  0  0  0
 25 53  1  0  0  0  0
 25 54  1  0  0  0  0
 26 27  1  0  0  0  0
 26 55  1  0  0  0  0
 26 56  1  0  0  0  0
 27 57  1  0  0  0  0
 27 58  1  0  0  0  0
M  END
>  <$CLUSTER>
201

>  <INDEX>
131543

$$$$
Asinex ASN 03365236
  MOE2020           3D

 50 52  0  0  0  0  0  0  0  0999 V2000
   -0.9690   -1.3550    2.0070 C   0  0  0  0  0  0  0  0  0  0  0  0
   -2.1780   -1.8230    2.7820 C   0  0  0  0  0  0  0  0  0  0  0  0
   -1.9180   -2.4830    3.9610 N   0  0  0  0  0  0  0  0  0  0  0  0
    0.5170    1.0120    0.1900 C   0  0  0  0  0  0  0  0  0  0  0  0
    0.2370   -1.6090    2.5130 C   0  0  0  0  0  0  0  0  0  0  0  0
   -0.6590   -2.7250    4.4450 C   0  0  0  0  0  0  0  0  0  0  0  0
    0.4160   -2.3120    3.7640 C   0  0  0  0  0  0  0  0  0  0  0  0
   -0.1170   -0.2130   -0.0310 N   0  0  0  0  0  0  0  0  0  0  0  0
   -1.3190   -0.6320    0.7140 C   0  0  0  0  0  0  0  0  0  0  0  0
    0.0470    1.7710    1.2130 N   0  0  0  0  0  0  0  0  0  0  0  0
   -0.4960   -3.4210    5.6840 C   0  0  0  0  0  0  0  0  0  0  0  0
    1.7390   -2.5500    4.2410 C   0  0  0  0  0  0  0  0  0  0  0  0
    1.9030   -3.2290    5.4510 C   0  0  0  0  0  0  0  0  0  0  0  0
    0.7870   -3.6640    6.1690 C   0  0  0  0  0  0  0  0  0  0  0  0
    1.8100    1.6340   -0.6860 S   0  0  0  0  0  0  0  0  0  0  0  0
   -3.3210   -1.6230    2.3800 O   0  0  0  0  0  0  0  0  0  0  0  0
    0.1690    2.9470    1.9230 C   0  0  0  0  0  0  0  0  0  0  0  0
    0.4130    5.3500    3.3820 C   0  0  0  0  0  0  0  0  0  0  0  0
    0.4660    6.4590    4.1160 F   0  0  0  0  0  0  0  0  0  0  0  0
    1.1460    3.8880    1.5920 C   0  0  0  0  0  0  0  0  0  0  0  0
   -0.6870    3.2340    3.0020 C   0  0  0  0  0  0  0  0  0  0  0  0
    1.2670    5.0810    2.3150 C   0  0  0  0  0  0  0  0  0  0  0  0
   -0.5680    4.4240    3.7270 C   0  0  0  0  0  0  0  0  0  0  0  0
    0.3650   -1.1860   -1.0320 C   0  0  0  0  0  0  0  0  0  0  0  0
   -0.1590    0.3010   -2.8860 O   0  0  0  0  0  0  0  0  0  0  0  0
    0.9690   -4.3930    7.4620 C   0  0  0  0  0  0  0  0  0  0  0  0
    3.2780   -3.4890    5.9760 C   0  0  0  0  0  0  0  0  0  0  0  0
   -0.3350   -1.0300   -2.3750 C   0  0  0  0  0  0  0  0  0  0  0  0
   -2.7050   -2.8100    4.5040 H   0  0  0  0  0  0  0  0  0  0  0  0
    1.1110   -1.2790    1.9710 H   0  0  0  0  0  0  0  0  0  0  0  0
   -1.9090    0.2520    0.9550 H   0  0  0  0  0  0  0  0  0  0  0  0
   -1.9070   -1.3010    0.0850 H   0  0  0  0  0  0  0  0  0  0  0  0
   -0.7150    1.2560    1.6310 H   0  0  0  0  0  0  0  0  0  0  0  0
   -1.3600   -3.7550    6.2390 H   0  0  0  0  0  0  0  0  0  0  0  0
    2.5970   -2.2120    3.6780 H   0  0  0  0  0  0  0  0  0  0  0  0
    1.8170    3.6930    0.7680 H   0  0  0  0  0  0  0  0  0  0  0  0
   -1.4510    2.5210    3.2760 H   0  0  0  0  0  0  0  0  0  0  0  0
    2.0280    5.7980    2.0430 H   0  0  0  0  0  0  0  0  0  0  0  0
   -1.2350    4.6240    4.5520 H   0  0  0  0  0  0  0  0  0  0  0  0
    0.1830   -2.1930   -0.6570 H   0  0  0  0  0  0  0  0  0  0  0  0
    1.4350   -1.0390   -1.1760 H   0  0  0  0  0  0  0  0  0  0  0  0
   -0.6150    0.3510   -3.7290 H   0  0  0  0  0  0  0  0  0  0  0  0
   -0.0070   -4.6510    7.8740 H   0  0  0  0  0  0  0  0  0  0  0  0
    1.5040   -3.7560    8.1660 H   0  0  0  0  0  0  0  0  0  0  0  0
    1.5420   -5.3040    7.2880 H   0  0  0  0  0  0  0  0  0  0  0  0
    4.0140   -3.0790    5.2850 H   0  0  0  0  0  0  0  0  0  0  0  0
    3.4320   -4.5630    6.0760 H   0  0  0  0  0  0  0  0  0  0  0  0
    3.3910   -3.0140    6.9510 H   0  0  0  0  0  0  0  0  0  0  0  0
   -1.4000   -1.2270   -2.2490 H   0  0  0  0  0  0  0  0  0  0  0  0
    0.0860   -1.7440   -3.0830 H   0  0  0  0  0  0  0  0  0  0  0  0
  1  2  1  0  0  0  0
  1  5  2  0  0  0  0
  1  9  1  0  0  0  0
  2  3  1  0  0  0  0
  2 16  2  0  0  0  0
  3  6  1  0  0  0  0
  3 29  1  0  0  0  0
  4  8  1  0  0  0  0
  4 10  1  0  0  0  0
  4 15  2  0  0  0  0
  5  7  1  0  0  0  0
  5 30  1  0  0  0  0
  6  7  2  0  0  0  0
  6 11  1  0  0  0  0
  7 12  1  0  0  0  0
  8  9  1  0  0  0  0
  8 24  1  0  0  0  0
  9 31  1  0  0  0  0
  9 32  1  0  0  0  0
 10 17  1  0  0  0  0
 10 33  1  0  0  0  0
 11 14  2  0  0  0  0
 11 34  1  0  0  0  0
 12 13  2  0  0  0  0
 12 35  1  0  0  0  0
 13 14  1  0  0  0  0
 13 27  1  0  0  0  0
 14 26  1  0  0  0  0
 17 20  2  0  0  0  0
 17 21  1  0  0  0  0
 18 19  1  0  0  0  0
 18 22  2  0  0  0  0
 18 23  1  0  0  0  0
 20 22  1  0  0  0  0
 20 36  1  0  0  0  0
 21 23  2  0  0  0  0
 21 37  1  0  0  0  0
 22 38  1  0  0  0  0
 23 39  1  0  0  0  0
 24 28  1  0  0  0  0
 24 40  1  0  0  0  0
 24 41  1  0  0  0  0
 25 28  1  0  0  0  0
 25 42  1  0  0  0  0
 26 43  1  0  0  0  0
 26 44  1  0  0  0  0
 26 45  1  0  0  0  0
 27 46  1  0  0  0  0
 27 47  1  0  0  0  0
 27 48  1  0  0  0  0
 28 49  1  0  0  0  0
 28 50  1  0  0  0  0
M  END
>  <$CLUSTER>
202

>  <INDEX>
131464

$$$$
Asinex ASN 03367965
  MOE2020           3D

 58 60  0  0  0  0  0  0  0  0999 V2000
   -0.9690   -1.3550    2.0070 C   0  0  0  0  0  0  0  0  0  0  0  0
   -2.1780   -1.8230    2.7820 C   0  0  0  0  0  0  0  0  0  0  0  0
   -1.9180   -2.4830    3.9610 N   0  0  0  0  0  0  0  0  0  0  0  0
    0.5170    1.0120    0.1900 C   0  0  0  0  0  0  0  0  0  0  0  0
    0.2370   -1.6090    2.5130 C   0  0  0  0  0  0  0  0  0  0  0  0
   -0.6590   -2.7250    4.4450 C   0  0  0  0  0  0  0  0  0  0  0  0
    0.4160   -2.3120    3.7640 C   0  0  0  0  0  0  0  0  0  0  0  0
   -0.1170   -0.2130   -0.0310 N   0  0  0  0  0  0  0  0  0  0  0  0
   -1.3190   -0.6320    0.7140 C   0  0  0  0  0  0  0  0  0  0  0  0
    0.0470    1.7710    1.2130 N   0  0  0  0  0  0  0  0  0  0  0  0
   -0.4960   -3.4210    5.6840 C   0  0  0  0  0  0  0  0  0  0  0  0
    1.7390   -2.5500    4.2410 C   0  0  0  0  0  0  0  0  0  0  0  0
    1.9030   -3.2290    5.4510 C   0  0  0  0  0  0  0  0  0  0  0  0
    0.7870   -3.6640    6.1690 C   0  0  0  0  0  0  0  0  0  0  0  0
    1.8100    1.6340   -0.6860 S   0  0  0  0  0  0  0  0  0  0  0  0
   -3.3210   -1.6230    2.3800 O   0  0  0  0  0  0  0  0  0  0  0  0
    0.3650   -1.1860   -1.0320 C   0  0  0  0  0  0  0  0  0  0  0  0
    0.1690    2.9470    1.9230 C   0  0  0  0  0  0  0  0  0  0  0  0
   -0.5020    0.4380   -2.5860 N   0  3  0  0  0  0  0  0  0  0  0  0
   -0.3350   -1.0300   -2.3750 C   0  0  0  0  0  0  0  0  0  0  0  0
    0.4130    5.3500    3.3820 C   0  0  0  0  0  0  0  0  0  0  0  0
    0.4660    6.4590    4.1160 F   0  0  0  0  0  0  0  0  0  0  0  0
    1.1460    3.8880    1.5920 C   0  0  0  0  0  0  0  0  0  0  0  0
   -0.6870    3.2340    3.0020 C   0  0  0  0  0  0  0  0  0  0  0  0
    1.2670    5.0810    2.3150 C   0  0  0  0  0  0  0  0  0  0  0  0
   -0.5680    4.4240    3.7270 C   0  0  0  0  0  0  0  0  0  0  0  0
    3.2780   -3.4890    5.9760 C   0  0  0  0  0  0  0  0  0  0  0  0
    0.9690   -4.3930    7.4620 C   0  0  0  0  0  0  0  0  0  0  0  0
   -0.8620    0.7050   -4.0760 C   0  0  0  0  0  0  0  0  0  0  0  0
   -1.5340    1.1210   -1.7250 C   0  0  0  0  0  0  0  0  0  0  0  0
   -2.7050   -2.8100    4.5040 H   0  0  0  0  0  0  0  0  0  0  0  0
    1.1110   -1.2790    1.9710 H   0  0  0  0  0  0  0  0  0  0  0  0
   -1.9090    0.2520    0.9550 H   0  0  0  0  0  0  0  0  0  0  0  0
   -1.9070   -1.3010    0.0850 H   0  0  0  0  0  0  0  0  0  0  0  0
   -0.7150    1.2560    1.6310 H   0  0  0  0  0  0  0  0  0  0  0  0
   -1.3600   -3.7550    6.2390 H   0  0  0  0  0  0  0  0  0  0  0  0
    2.5970   -2.2120    3.6780 H   0  0  0  0  0  0  0  0  0  0  0  0
    0.1830   -2.1930   -0.6570 H   0  0  0  0  0  0  0  0  0  0  0  0
    1.4350   -1.0390   -1.1760 H   0  0  0  0  0  0  0  0  0  0  0  0
    0.3860    0.8350   -2.3150 H   0  0  0  0  0  0  0  0  0  0  0  0
   -1.3070   -1.5220   -2.3540 H   0  0  0  0  0  0  0  0  0  0  0  0
    0.2730   -1.4600   -3.1710 H   0  0  0  0  0  0  0  0  0  0  0  0
    1.8170    3.6930    0.7680 H   0  0  0  0  0  0  0  0  0  0  0  0
   -1.4510    2.5210    3.2760 H   0  0  0  0  0  0  0  0  0  0  0  0
    2.0280    5.7980    2.0430 H   0  0  0  0  0  0  0  0  0  0  0  0
   -1.2350    4.6240    4.5520 H   0  0  0  0  0  0  0  0  0  0  0  0
    4.0140   -3.0790    5.2850 H   0  0  0  0  0  0  0  0  0  0  0  0
    3.4320   -4.5630    6.0760 H   0  0  0  0  0  0  0  0  0  0  0  0
    3.3910   -3.0140    6.9510 H   0  0  0  0  0  0  0  0  0  0  0  0
   -0.0070   -4.6510    7.8740 H   0  0  0  0  0  0  0  0  0  0  0  0
    1.5040   -3.7560    8.1660 H   0  0  0  0  0  0  0  0  0  0  0  0
    1.5420   -5.3040    7.2880 H   0  0  0  0  0  0  0  0  0  0  0  0
   -1.8280    0.2530   -4.3030 H   0  0  0  0  0  0  0  0  0  0  0  0
   -0.0970    0.2690   -4.7180 H   0  0  0  0  0  0  0  0  0  0  0  0
   -0.9140    1.7800   -4.2500 H   0  0  0  0  0  0  0  0  0  0  0  0
   -2.5240    0.7350   -1.9690 H   0  0  0  0  0  0  0  0  0  0  0  0
   -1.5070    2.1950   -1.9090 H   0  0  0  0  0  0  0  0  0  0  0  0
   -1.3170    0.9270   -0.6750 H   0  0  0  0  0  0  0  0  0  0  0  0
  1  2  1  0  0  0  0
  1  5  2  0  0  0  0
  1  9  1  0  0  0  0
  2  3  1  0  0  0  0
  2 16  2  0  0  0  0
  3  6  1  0  0  0  0
  3 31  1  0  0  0  0
  4  8  1  0  0  0  0
  4 10  1  0  0  0  0
  4 15  2  0  0  0  0
  5  7  1  0  0  0  0
  5 32  1  0  0  0  0
  6  7  2  0  0  0  0
  6 11  1  0  0  0  0
  7 12  1  0  0  0  0
  8  9  1  0  0  0  0
  8 17  1  0  0  0  0
  9 33  1  0  0  0  0
  9 34  1  0  0  0  0
 10 18  1  0  0  0  0
 10 35  1  0  0  0  0
 11 14  2  0  0  0  0
 11 36  1  0  0  0  0
 12 13  2  0  0  0  0
 12 37  1  0  0  0  0
 13 14  1  0  0  0  0
 13 27  1  0  0  0  0
 14 28  1  0  0  0  0
 17 20  1  0  0  0  0
 17 38  1  0  0  0  0
 17 39  1  0  0  0  0
 18 23  2  0  0  0  0
 18 24  1  0  0  0  0
 19 20  1  0  0  0  0
 19 29  1  0  0  0  0
 19 30  1  0  0  0  0
 19 40  1  0  0  0  0
 20 41  1  0  0  0  0
 20 42  1  0  0  0  0
 21 22  1  0  0  0  0
 21 25  2  0  0  0  0
 21 26  1  0  0  0  0
 23 25  1  0  0  0  0
 23 43  1  0  0  0  0
 24 26  2  0  0  0  0
 24 44  1  0  0  0  0
 25 45  1  0  0  0  0
 26 46  1  0  0  0  0
 27 47  1  0  0  0  0
 27 48  1  0  0  0  0
 27 49  1  0  0  0  0
 28 50  1  0  0  0  0
 28 51  1  0  0  0  0
 28 52  1  0  0  0  0
 29 53  1  0  0  0  0
 29 54  1  0  0  0  0
 29 55  1  0  0  0  0
 30 56  1  0  0  0  0
 30 57  1  0  0  0  0
 30 58  1  0  0  0  0
M  CHG  1  19   1
M  END
>  <$CLUSTER>
203

>  <INDEX>
132202

$$$$
Life Chemicals F1822-0016
  MOE2020           3D

 37 40  0  0  0  0  0  0  0  0999 V2000
   -0.1640   -0.4950   -0.2880 C   0  0  0  0  0  0  0  0  0  0  0  0
   -0.7880   -1.6440   -0.4390 N   0  0  0  0  0  0  0  0  0  0  0  0
   -0.7950    0.6370    0.1990 N   0  0  0  0  0  0  0  0  0  0  0  0
    1.4870   -0.4910   -0.7360 S   0  0  0  0  0  0  0  0  0  0  0  0
    0.0880   -2.5860   -0.9400 C   0  0  0  0  0  0  0  0  0  0  0  0
    1.3720   -2.1440   -1.1660 C   0  0  0  0  0  0  0  0  0  0  0  0
   -0.2290    1.8900    0.3940 C   0  0  0  0  0  0  0  0  0  0  0  0
   -0.2360   -3.9400   -1.2300 C   0  0  0  0  0  0  0  0  0  0  0  0
    2.3800   -2.9940   -1.6760 C   0  0  0  0  0  0  0  0  0  0  0  0
    0.7520   -4.7900   -1.7350 C   0  0  0  0  0  0  0  0  0  0  0  0
    2.0430   -4.3210   -1.9550 C   0  0  0  0  0  0  0  0  0  0  0  0
   -1.2460    2.8610    0.9420 C   0  0  0  0  0  0  0  0  0  0  0  0
    3.0590   -5.1040   -2.4850 O   0  0  0  0  0  0  0  0  0  0  0  0
    0.3630   -6.1050   -1.9610 O   0  0  0  0  0  0  0  0  0  0  0  0
    0.9250    2.2490    0.1800 O   0  0  0  0  0  0  0  0  0  0  0  0
   -0.9840    4.2460    0.6940 C   0  0  0  0  0  0  0  0  0  0  0  0
   -2.3390    2.5120    1.7000 C   0  0  0  0  0  0  0  0  0  0  0  0
   -1.8610    5.2160    1.1850 C   0  0  0  0  0  0  0  0  0  0  0  0
   -3.2120    3.4870    2.1900 C   0  0  0  0  0  0  0  0  0  0  0  0
   -2.9750    4.8360    1.9310 C   0  0  0  0  0  0  0  0  0  0  0  0
    1.5100   -6.9580   -2.1300 C   0  0  0  0  0  0  0  0  0  0  0  0
    2.5330   -6.3150   -3.0590 C   0  0  0  0  0  0  0  0  0  0  0  0
   -3.9130    5.8750    2.4510 C   0  0  0  0  0  0  0  0  0  0  0  0
   -1.7720    0.5410    0.4380 H   0  0  0  0  0  0  0  0  0  0  0  0
   -1.2370   -4.3080   -1.0610 H   0  0  0  0  0  0  0  0  0  0  0  0
    3.3820   -2.6280   -1.8450 H   0  0  0  0  0  0  0  0  0  0  0  0
   -0.1120    4.5400    0.1290 H   0  0  0  0  0  0  0  0  0  0  0  0
   -2.5250    1.4710    1.9190 H   0  0  0  0  0  0  0  0  0  0  0  0
   -1.6760    6.2610    0.9860 H   0  0  0  0  0  0  0  0  0  0  0  0
   -4.0740    3.1940    2.7720 H   0  0  0  0  0  0  0  0  0  0  0  0
    1.1880   -7.9080   -2.5560 H   0  0  0  0  0  0  0  0  0  0  0  0
    1.9710   -7.1330   -1.1580 H   0  0  0  0  0  0  0  0  0  0  0  0
    3.3510   -7.0150   -3.2270 H   0  0  0  0  0  0  0  0  0  0  0  0
    2.0540   -6.0810   -4.0100 H   0  0  0  0  0  0  0  0  0  0  0  0
   -3.5650    6.8630    2.1490 H   0  0  0  0  0  0  0  0  0  0  0  0
   -3.9500    5.8200    3.5390 H   0  0  0  0  0  0  0  0  0  0  0  0
   -4.9090    5.7010    2.0450 H   0  0  0  0  0  0  0  0  0  0  0  0
  1  2  2  0  0  0  0
  1  3  1  0  0  0  0
  1  4  1  0  0  0  0
  2  5  1  0  0  0  0
  3  7  1  0  0  0  0
  3 24  1  0  0  0  0
  4  6  1  0  0  0  0
  5  6  2  0  0  0  0
  5  8  1  0  0  0  0
  6  9  1  0  0  0  0
  7 12  1  0  0  0  0
  7 15  2  0  0  0  0
  8 10  2  0  0  0  0
  8 25  1  0  0  0  0
  9 11  2  0  0  0  0
  9 26  1  0  0  0  0
 10 11  1  0  0  0  0
 10 14  1  0  0  0  0
 11 13  1  0  0  0  0
 12 16  2  0  0  0  0
 12 17  1  0  0  0  0
 13 22  1  0  0  0  0
 14 21  1  0  0  0  0
 16 18  1  0  0  0  0
 16 27  1  0  0  0  0
 17 19  2  0  0  0  0
 17 28  1  0  0  0  0
 18 20  2  0  0  0  0
 18 29  1  0  0  0  0
 19 20  1  0  0  0  0
 19 30  1  0  0  0  0
 20 23  1  0  0  0  0
 21 22  1  0  0  0  0
 21 31  1  0  0  0  0
 21 32  1  0  0  0  0
 22 33  1  0  0  0  0
 22 34  1  0  0  0  0
 23 35  1  0  0  0  0
 23 36  1  0  0  0  0
 23 37  1  0  0  0  0
M  END
>  <$CLUSTER>
204

>  <INDEX>
298323

$$$$
Asinex ASN 03878501
  MOE2020           3D

 60 62  0  0  1  0  0  0  0  0999 V2000
   -1.0230   -0.7020    2.2680 C   0  0  0  0  0  0  0  0  0  0  0  0
   -1.6840   -1.0060    3.3840 C   0  0  0  0  0  0  0  0  0  0  0  0
   -0.2760    0.5460    1.8470 C   0  0  0  0  0  0  0  0  0  0  0  0
   -2.2500   -2.3090    3.2990 C   0  0  0  0  0  0  0  0  0  0  0  0
   -2.0440   -2.9830    2.1720 N   0  0  0  0  0  0  0  0  0  0  0  0
   -1.1370   -2.0320    1.1610 S   0  0  0  0  0  0  0  0  0  0  0  0
    0.3360    0.5540    0.5820 N   0  0  0  0  0  0  0  0  0  0  0  0
    0.7690    3.0040    0.2580 C   0  0  0  0  0  0  0  0  0  0  0  0
    0.0160   -0.3860   -0.4570 C   0  0  0  0  0  0  0  0  0  0  0  0
   -3.0630   -3.0050    4.3560 C   0  0  0  0  0  0  0  0  0  0  0  0
    1.3570    1.5880    0.2560 C   0  0  3  0  0  0  0  0  0  0  0  0
   -0.1730    3.2230   -0.7160 N   0  0  0  0  0  0  0  0  0  0  0  0
   -0.1930    1.4710    2.6600 O   0  0  0  0  0  0  0  0  0  0  0  0
    1.0280   -0.9760   -1.2300 C   0  0  0  0  0  0  0  0  0  0  0  0
    1.0580    3.8820    1.0650 O   0  0  0  0  0  0  0  0  0  0  0  0
   -1.8080   -0.2070    4.4620 N   0  0  0  0  0  0  0  0  0  0  0  0
   -3.3170   -2.4780    5.4370 O   0  0  0  0  0  0  0  0  0  0  0  0
   -3.5030   -4.2710    4.0300 N   0  0  0  0  0  0  0  0  0  0  0  0
   -0.8880    4.4510   -0.9540 C   0  0  0  0  0  0  0  0  0  0  0  0
    0.7130   -1.8750   -2.2520 C   0  0  0  0  0  0  0  0  0  0  0  0
   -1.3190   -0.7010   -0.7520 C   0  0  0  0  0  0  0  0  0  0  0  0
    2.5800    1.4910    1.1700 C   0  0  0  0  0  0  0  0  0  0  0  0
   -1.6320   -1.5990   -1.7760 C   0  0  0  0  0  0  0  0  0  0  0  0
   -0.6160   -2.1880   -2.5230 C   0  0  0  0  0  0  0  0  0  0  0  0
    1.8060   -2.5020   -3.0570 C   0  0  0  0  0  0  0  0  0  0  0  0
   -2.2730    4.1850   -1.5340 C   0  0  0  0  0  0  0  0  0  0  0  0
   -0.0800    5.3690   -1.8660 C   0  0  0  0  0  0  0  0  0  0  0  0
    3.7310    2.3830    0.8280 C   0  0  0  0  0  0  0  0  0  0  0  0
    4.8980    2.2490    1.7510 C   0  0  0  0  0  0  0  0  0  0  0  0
   -1.2440    6.3480   -2.3040 C   0  0  0  0  0  0  0  0  0  0  0  0
   -2.5750    5.6250   -2.1000 C   0  0  0  0  0  0  0  0  0  0  0  0
    1.6920    1.3820   -0.7600 H   0  0  0  0  0  0  0  0  0  0  0  0
   -0.3860    2.4470   -1.3260 H   0  0  0  0  0  0  0  0  0  0  0  0
    2.0610   -0.7320   -1.0330 H   0  0  0  0  0  0  0  0  0  0  0  0
   -2.3260   -0.5240    5.2690 H   0  0  0  0  0  0  0  0  0  0  0  0
   -1.3830    0.7090    4.4630 H   0  0  0  0  0  0  0  0  0  0  0  0
   -4.0550   -4.7990    4.6900 H   0  0  0  0  0  0  0  0  0  0  0  0
   -3.2730   -4.6700    3.1310 H   0  0  0  0  0  0  0  0  0  0  0  0
   -1.0270    4.9520    0.0040 H   0  0  0  0  0  0  0  0  0  0  0  0
   -2.1140   -0.2440   -0.1810 H   0  0  0  0  0  0  0  0  0  0  0  0
    2.9370    0.4610    1.1410 H   0  0  0  0  0  0  0  0  0  0  0  0
    2.2590    1.7350    2.1830 H   0  0  0  0  0  0  0  0  0  0  0  0
   -2.6640   -1.8360   -1.9880 H   0  0  0  0  0  0  0  0  0  0  0  0
   -0.8580   -2.8860   -3.3110 H   0  0  0  0  0  0  0  0  0  0  0  0
    2.7710   -2.1400   -2.7030 H   0  0  0  0  0  0  0  0  0  0  0  0
    1.6810   -2.2380   -4.1070 H   0  0  0  0  0  0  0  0  0  0  0  0
    1.7620   -3.5860   -2.9470 H   0  0  0  0  0  0  0  0  0  0  0  0
   -2.9880    3.8880   -0.7670 H   0  0  0  0  0  0  0  0  0  0  0  0
   -2.2500    3.4320   -2.3210 H   0  0  0  0  0  0  0  0  0  0  0  0
    0.3470    4.8330   -2.7140 H   0  0  0  0  0  0  0  0  0  0  0  0
    0.7130    5.8880   -1.3280 H   0  0  0  0  0  0  0  0  0  0  0  0
    3.3850    3.4160    0.8600 H   0  0  0  0  0  0  0  0  0  0  0  0
    4.0630    2.1420   -0.1820 H   0  0  0  0  0  0  0  0  0  0  0  0
    4.5860    2.4860    2.7680 H   0  0  0  0  0  0  0  0  0  0  0  0
    5.6860    2.9370    1.4430 H   0  0  0  0  0  0  0  0  0  0  0  0
    5.2740    1.2260    1.7150 H   0  0  0  0  0  0  0  0  0  0  0  0
   -1.1260    6.6160   -3.3540 H   0  0  0  0  0  0  0  0  0  0  0  0
   -1.2170    7.2510   -1.6940 H   0  0  0  0  0  0  0  0  0  0  0  0
   -3.1900    6.1780   -1.3910 H   0  0  0  0  0  0  0  0  0  0  0  0
   -3.1010    5.5450   -3.0520 H   0  0  0  0  0  0  0  0  0  0  0  0
  1  2  2  0  0  0  0
  1  3  1  0  0  0  0
  1  6  1  0  0  0  0
  2  4  1  0  0  0  0
  2 16  1  0  0  0  0
  3  7  1  0  0  0  0
  3 13  2  0  0  0  0
  4  5  2  0  0  0  0
  4 10  1  0  0  0  0
  5  6  1  0  0  0  0
  7  9  1  0  0  0  0
  7 11  1  0  0  0  0
  8 11  1  0  0  0  0
  8 12  1  0  0  0  0
  8 15  2  0  0  0  0
  9 14  2  0  0  0  0
  9 21  1  0  0  0  0
 10 17  2  0  0  0  0
 10 18  1  0  0  0  0
 11 22  1  0  0  0  0
 11 32  1  0  0  0  0
 12 19  1  0  0  0  0
 12 33  1  0  0  0  0
 14 20  1  0  0  0  0
 14 34  1  0  0  0  0
 16 35  1  0  0  0  0
 16 36  1  0  0  0  0
 18 37  1  0  0  0  0
 18 38  1  0  0  0  0
 19 26  1  0  0  0  0
 19 27  1  0  0  0  0
 19 39  1  0  0  0  0
 20 24  2  0  0  0  0
 20 25  1  0  0  0  0
 21 23  2  0  0  0  0
 21 40  1  0  0  0  0
 22 28  1  0  0  0  0
 22 41  1  0  0  0  0
 22 42  1  0  0  0  0
 23 24  1  0  0  0  0
 23 43  1  0  0  0  0
 24 44  1  0  0  0  0
 25 45  1  0  0  0  0
 25 46  1  0  0  0  0
 25 47  1  0  0  0  0
 26 31  1  0  0  0  0
 26 48  1  0  0  0  0
 26 49  1  0  0  0  0
 27 30  1  0  0  0  0
 27 50  1  0  0  0  0
 27 51  1  0  0  0  0
 28 29  1  0  0  0  0
 28 52  1  0  0  0  0
 28 53  1  0  0  0  0
 29 54  1  0  0  0  0
 29 55  1  0  0  0  0
 29 56  1  0  0  0  0
 30 31  1  0  0  0  0
 30 57  1  0  0  0  0
 30 58  1  0  0  0  0
 31 59  1  0  0  0  0
 31 60  1  0  0  0  0
M  END
>  <$CLUSTER>
205

>  <INDEX>
135440

$$$$
Asinex ASN 03798095
  MOE2020           3D

 59 61  0  0  0  0  0  0  0  0999 V2000
    4.5300    0.8640   -0.3350 S   0  0  0  0  0  0  0  0  0  0  0  0
    4.6310    1.6840   -1.7910 N   0  0  0  0  0  0  0  0  0  0  0  0
    2.8270    0.4420   -0.2290 C   0  0  0  0  0  0  0  0  0  0  0  0
   -2.3130    0.0020    0.6070 C   0  0  0  0  0  0  0  0  0  0  0  0
   -4.0200   -0.9960   -0.9450 N   0  3  0  0  0  0  0  0  0  0  0  0
    4.8370    1.8120    0.7230 O   0  0  0  0  0  0  0  0  0  0  0  0
    5.3060   -0.3560   -0.4630 O   0  0  0  0  0  0  0  0  0  0  0  0
   -1.2330   -0.6810    0.0630 N   0  0  0  0  0  0  0  0  0  0  0  0
    4.4430    0.9030   -3.0430 C   0  0  0  0  0  0  0  0  0  0  0  0
    3.9870    3.0210   -1.8840 C   0  0  0  0  0  0  0  0  0  0  0  0
   -3.5840   -0.8020    0.4840 C   0  0  0  0  0  0  0  0  0  0  0  0
   -2.3190    1.1090    1.1340 O   0  0  0  0  0  0  0  0  0  0  0  0
    1.9250    1.3180    0.3700 C   0  0  0  0  0  0  0  0  0  0  0  0
    2.3780   -0.7810   -0.7190 C   0  0  0  0  0  0  0  0  0  0  0  0
    0.1130   -0.2500   -0.0060 C   0  0  0  0  0  0  0  0  0  0  0  0
   -5.0420   -2.0820   -1.0840 C   0  0  0  0  0  0  0  0  0  0  0  0
   -4.4860    0.2770   -1.6090 C   0  0  0  0  0  0  0  0  0  0  0  0
    1.0300   -1.1250   -0.6080 C   0  0  0  0  0  0  0  0  0  0  0  0
    0.5730    0.9760    0.4830 C   0  0  0  0  0  0  0  0  0  0  0  0
    4.4550    3.8120   -3.1010 C   0  0  0  0  0  0  0  0  0  0  0  0
    4.9190    1.6590   -4.2800 C   0  0  0  0  0  0  0  0  0  0  0  0
   -5.3620   -2.3490   -2.5500 C   0  0  0  0  0  0  0  0  0  0  0  0
   -4.7890    0.0500   -3.0690 C   0  0  0  0  0  0  0  0  0  0  0  0
    4.2550    3.0320   -4.4020 C   0  0  0  0  0  0  0  0  0  0  0  0
   -5.8200   -1.0700   -3.2620 C   0  0  0  0  0  0  0  0  0  0  0  0
    4.8060    3.8050   -5.5980 C   0  0  0  0  0  0  0  0  0  0  0  0
   -6.0700   -1.3320   -4.7470 C   0  0  0  0  0  0  0  0  0  0  0  0
   -3.1880   -1.2890   -1.4380 H   0  0  0  0  0  0  0  0  0  0  0  0
   -1.4310   -1.5910   -0.3290 H   0  0  0  0  0  0  0  0  0  0  0  0
    3.3830    0.6770   -3.1580 H   0  0  0  0  0  0  0  0  0  0  0  0
    5.0060   -0.0270   -2.9630 H   0  0  0  0  0  0  0  0  0  0  0  0
    4.2280    3.5880   -0.9850 H   0  0  0  0  0  0  0  0  0  0  0  0
    2.9070    2.8850   -1.9500 H   0  0  0  0  0  0  0  0  0  0  0  0
   -4.3770   -0.2830    1.0220 H   0  0  0  0  0  0  0  0  0  0  0  0
   -3.4210   -1.7810    0.9340 H   0  0  0  0  0  0  0  0  0  0  0  0
    2.2720    2.2680    0.7500 H   0  0  0  0  0  0  0  0  0  0  0  0
    3.0730   -1.4640   -1.1850 H   0  0  0  0  0  0  0  0  0  0  0  0
   -5.9540   -1.7800   -0.5700 H   0  0  0  0  0  0  0  0  0  0  0  0
   -4.6550   -2.9950   -0.6320 H   0  0  0  0  0  0  0  0  0  0  0  0
   -3.7040    1.0310   -1.5210 H   0  0  0  0  0  0  0  0  0  0  0  0
   -5.3880    0.6290   -1.1090 H   0  0  0  0  0  0  0  0  0  0  0  0
    0.6890   -2.0760   -0.9900 H   0  0  0  0  0  0  0  0  0  0  0  0
   -0.1180    1.6620    0.9500 H   0  0  0  0  0  0  0  0  0  0  0  0
    5.5150    4.0400   -2.9870 H   0  0  0  0  0  0  0  0  0  0  0  0
    3.8880    4.7410   -3.1570 H   0  0  0  0  0  0  0  0  0  0  0  0
    4.6780    1.0710   -5.1660 H   0  0  0  0  0  0  0  0  0  0  0  0
    5.9990    1.7940   -4.2160 H   0  0  0  0  0  0  0  0  0  0  0  0
   -6.1560   -3.0930   -2.6100 H   0  0  0  0  0  0  0  0  0  0  0  0
   -4.4690   -2.7300   -3.0450 H   0  0  0  0  0  0  0  0  0  0  0  0
   -3.8680   -0.2240   -3.5830 H   0  0  0  0  0  0  0  0  0  0  0  0
   -5.1830    0.9720   -3.4960 H   0  0  0  0  0  0  0  0  0  0  0  0
    3.1870    2.8950   -4.5710 H   0  0  0  0  0  0  0  0  0  0  0  0
   -6.7620   -0.7490   -2.8170 H   0  0  0  0  0  0  0  0  0  0  0  0
    5.8760    3.9630   -5.4660 H   0  0  0  0  0  0  0  0  0  0  0  0
    4.3030    4.7690   -5.6710 H   0  0  0  0  0  0  0  0  0  0  0  0
    4.6320    3.2350   -6.5100 H   0  0  0  0  0  0  0  0  0  0  0  0
   -5.1430   -1.6560   -5.2200 H   0  0  0  0  0  0  0  0  0  0  0  0
   -6.4200   -0.4160   -5.2240 H   0  0  0  0  0  0  0  0  0  0  0  0
   -6.8250   -2.1100   -4.8570 H   0  0  0  0  0  0  0  0  0  0  0  0
  1  2  1  0  0  0  0
  1  3  1  0  0  0  0
  1  6  2  0  0  0  0
  1  7  2  0  0  0  0
  2  9  1  0  0  0  0
  2 10  1  0  0  0  0
  3 13  1  0  0  0  0
  3 14  2  0  0  0  0
  4  8  1  0  0  0  0
  4 11  1  0  0  0  0
  4 12  2  0  0  0  0
  5 11  1  0  0  0  0
  5 16  1  0  0  0  0
  5 17  1  0  0  0  0
  5 28  1  0  0  0  0
  8 15  1  0  0  0  0
  8 29  1  0  0  0  0
  9 21  1  0  0  0  0
  9 30  1  0  0  0  0
  9 31  1  0  0  0  0
 10 20  1  0  0  0  0
 10 32  1  0  0  0  0
 10 33  1  0  0  0  0
 11 34  1  0  0  0  0
 11 35  1  0  0  0  0
 13 19  2  0  0  0  0
 13 36  1  0  0  0  0
 14 18  1  0  0  0  0
 14 37  1  0  0  0  0
 15 18  2  0  0  0  0
 15 19  1  0  0  0  0
 16 22  1  0  0  0  0
 16 38  1  0  0  0  0
 16 39  1  0  0  0  0
 17 23  1  0  0  0  0
 17 40  1  0  0  0  0
 17 41  1  0  0  0  0
 18 42  1  0  0  0  0
 19 43  1  0  0  0  0
 20 24  1  0  0  0  0
 20 44  1  0  0  0  0
 20 45  1  0  0  0  0
 21 24  1  0  0  0  0
 21 46  1  0  0  0  0
 21 47  1  0  0  0  0
 22 25  1  0  0  0  0
 22 48  1  0  0  0  0
 22 49  1  0  0  0  0
 23 25  1  0  0  0  0
 23 50  1  0  0  0  0
 23 51  1  0  0  0  0
 24 26  1  0  0  0  0
 24 52  1  0  0  0  0
 25 27  1  0  0  0  0
 25 53  1  0  0  0  0
 26 54  1  0  0  0  0
 26 55  1  0  0  0  0
 26 56  1  0  0  0  0
 27 57  1  0  0  0  0
 27 58  1  0  0  0  0
 27 59  1  0  0  0  0
M  CHG  1   5   1
M  END
>  <$CLUSTER>
206

>  <INDEX>
134924

$$$$
Asinex ASN 03430691
  MOE2020           3D

 54 56  0  0  0  0  0  0  0  0999 V2000
   -1.2590   -0.4660   -0.8590 C   0  0  0  0  0  0  0  0  0  0  0  0
   -1.2670    0.0130    0.4240 C   0  0  0  0  0  0  0  0  0  0  0  0
   -0.0170   -0.4020   -1.4210 N   0  0  0  0  0  0  0  0  0  0  0  0
   -2.3990   -0.9570   -1.4790 N   0  0  0  0  0  0  0  0  0  0  0  0
   -3.5800   -0.4630    0.5680 N   0  0  0  0  0  0  0  0  0  0  0  0
   -3.6230   -0.9710   -0.7750 C   0  0  0  0  0  0  0  0  0  0  0  0
   -2.4410    0.0420    1.2480 C   0  0  0  0  0  0  0  0  0  0  0  0
    0.7460    0.1180   -0.4820 C   0  0  0  0  0  0  0  0  0  0  0  0
    0.0310    0.4050    0.6620 N   0  0  0  0  0  0  0  0  0  0  0  0
    2.4530    0.4090   -0.6280 S   0  0  0  0  0  0  0  0  0  0  0  0
   -4.6700   -1.3940   -1.2780 O   0  0  0  0  0  0  0  0  0  0  0  0
   -2.4520    0.4510    2.4060 O   0  0  0  0  0  0  0  0  0  0  0  0
    2.1710    0.7630   -3.3660 C   0  0  0  0  0  0  0  0  0  0  0  0
    0.9510    0.3810   -3.8110 N   0  0  0  0  0  0  0  0  0  0  0  0
    2.7110    1.8060   -3.7170 O   0  0  0  0  0  0  0  0  0  0  0  0
   -2.3250   -1.4540   -2.8480 C   0  0  0  0  0  0  0  0  0  0  0  0
   -4.8480   -0.4800    1.2900 C   0  0  0  0  0  0  0  0  0  0  0  0
    2.7720   -0.1620   -2.3120 C   0  0  0  0  0  0  0  0  0  0  0  0
    0.0720    0.9410   -4.7520 C   0  0  0  0  0  0  0  0  0  0  0  0
    0.5240    1.0040    1.8910 C   0  0  0  0  0  0  0  0  0  0  0  0
   -1.7460    2.0020   -6.6130 C   0  0  0  0  0  0  0  0  0  0  0  0
    0.3550    2.1390   -5.4130 C   0  0  0  0  0  0  0  0  0  0  0  0
   -1.1330    0.2800   -5.0350 C   0  0  0  0  0  0  0  0  0  0  0  0
   -0.5530    2.6660   -6.3390 C   0  0  0  0  0  0  0  0  0  0  0  0
   -2.0360    0.8070   -5.9590 C   0  0  0  0  0  0  0  0  0  0  0  0
   -2.7180    2.5690   -7.6290 C   0  0  0  0  0  0  0  0  0  0  0  0
    0.9540   -0.0360    2.9100 C   0  0  0  0  0  0  0  0  0  0  0  0
   -2.4320    2.0530   -9.0320 C   0  0  0  0  0  0  0  0  0  0  0  0
    1.4560    0.5870    4.1920 C   0  0  0  0  0  0  0  0  0  0  0  0
    0.6080   -0.4680   -3.3850 H   0  0  0  0  0  0  0  0  0  0  0  0
   -1.3030   -1.3590   -3.2140 H   0  0  0  0  0  0  0  0  0  0  0  0
   -2.9940   -0.8720   -3.4820 H   0  0  0  0  0  0  0  0  0  0  0  0
   -2.6230   -2.5020   -2.8710 H   0  0  0  0  0  0  0  0  0  0  0  0
   -5.6270   -0.8910    0.6470 H   0  0  0  0  0  0  0  0  0  0  0  0
   -5.1150    0.5360    1.5800 H   0  0  0  0  0  0  0  0  0  0  0  0
   -4.7500   -1.0980    2.1820 H   0  0  0  0  0  0  0  0  0  0  0  0
    2.3400   -1.1560   -2.4320 H   0  0  0  0  0  0  0  0  0  0  0  0
    3.8500   -0.2130   -2.4660 H   0  0  0  0  0  0  0  0  0  0  0  0
   -0.2680    1.6130    2.3260 H   0  0  0  0  0  0  0  0  0  0  0  0
    1.3800    1.6360    1.6540 H   0  0  0  0  0  0  0  0  0  0  0  0
    1.2780    2.6610   -5.2090 H   0  0  0  0  0  0  0  0  0  0  0  0
   -1.3640   -0.6470   -4.5320 H   0  0  0  0  0  0  0  0  0  0  0  0
   -0.3270    3.5930   -6.8440 H   0  0  0  0  0  0  0  0  0  0  0  0
   -2.9600    0.2880   -6.1670 H   0  0  0  0  0  0  0  0  0  0  0  0
   -2.6350    3.6560   -7.6290 H   0  0  0  0  0  0  0  0  0  0  0  0
   -3.7310    2.2820   -7.3470 H   0  0  0  0  0  0  0  0  0  0  0  0
    1.7520   -0.6400    2.4780 H   0  0  0  0  0  0  0  0  0  0  0  0
    0.1010   -0.6730    3.1410 H   0  0  0  0  0  0  0  0  0  0  0  0
   -1.4200    2.3350   -9.3240 H   0  0  0  0  0  0  0  0  0  0  0  0
   -3.1460    2.4870   -9.7310 H   0  0  0  0  0  0  0  0  0  0  0  0
   -2.5250    0.9670   -9.0460 H   0  0  0  0  0  0  0  0  0  0  0  0
    2.3110    1.2280    3.9740 H   0  0  0  0  0  0  0  0  0  0  0  0
    1.7580   -0.1990    4.8840 H   0  0  0  0  0  0  0  0  0  0  0  0
    0.6610    1.1820    4.6420 H   0  0  0  0  0  0  0  0  0  0  0  0
  1  2  2  0  0  0  0
  1  3  1  0  0  0  0
  1  4  1  0  0  0  0
  2  7  1  0  0  0  0
  2  9  1  0  0  0  0
  3  8  2  0  0  0  0
  4  6  1  0  0  0  0
  4 16  1  0  0  0  0
  5  6  1  0  0  0  0
  5  7  1  0  0  0  0
  5 17  1  0  0  0  0
  6 11  2  0  0  0  0
  7 12  2  0  0  0  0
  8  9  1  0  0  0  0
  8 10  1  0  0  0  0
  9 20  1  0  0  0  0
 10 18  1  0  0  0  0
 13 14  1  0  0  0  0
 13 15  2  0  0  0  0
 13 18  1  0  0  0  0
 14 19  1  0  0  0  0
 14 30  1  0  0  0  0
 16 31  1  0  0  0  0
 16 32  1  0  0  0  0
 16 33  1  0  0  0  0
 17 34  1  0  0  0  0
 17 35  1  0  0  0  0
 17 36  1  0  0  0  0
 18 37  1  0  0  0  0
 18 38  1  0  0  0  0
 19 22  2  0  0  0  0
 19 23  1  0  0  0  0
 20 27  1  0  0  0  0
 20 39  1  0  0  0  0
 20 40  1  0  0  0  0
 21 24  2  0  0  0  0
 21 25  1  0  0  0  0
 21 26  1  0  0  0  0
 22 24  1  0  0  0  0
 22 41  1  0  0  0  0
 23 25  2  0  0  0  0
 23 42  1  0  0  0  0
 24 43  1  0  0  0  0
 25 44  1  0  0  0  0
 26 28  1  0  0  0  0
 26 45  1  0  0  0  0
 26 46  1  0  0  0  0
 27 29  1  0  0  0  0
 27 47  1  0  0  0  0
 27 48  1  0  0  0  0
 28 49  1  0  0  0  0
 28 50  1  0  0  0  0
 28 51  1  0  0  0  0
 29 52  1  0  0  0  0
 29 53  1  0  0  0  0
 29 54  1  0  0  0  0
M  END
>  <$CLUSTER>
207

>  <INDEX>
132335

$$$$
Asinex ASN 03430797
  MOE2020           3D

 55 58  0  0  0  0  0  0  0  0999 V2000
   -1.2590   -0.4660   -0.8590 C   0  0  0  0  0  0  0  0  0  0  0  0
   -1.2670    0.0130    0.4240 C   0  0  0  0  0  0  0  0  0  0  0  0
   -0.0170   -0.4020   -1.4210 N   0  0  0  0  0  0  0  0  0  0  0  0
   -2.3990   -0.9570   -1.4790 N   0  0  0  0  0  0  0  0  0  0  0  0
   -3.5800   -0.4630    0.5680 N   0  0  0  0  0  0  0  0  0  0  0  0
   -3.6230   -0.9710   -0.7750 C   0  0  0  0  0  0  0  0  0  0  0  0
   -2.4410    0.0420    1.2480 C   0  0  0  0  0  0  0  0  0  0  0  0
    0.7460    0.1180   -0.4820 C   0  0  0  0  0  0  0  0  0  0  0  0
    0.0310    0.4050    0.6620 N   0  0  0  0  0  0  0  0  0  0  0  0
    0.9510    0.3810   -3.8110 N   0  0  0  0  0  0  0  0  0  0  0  0
    2.1710    0.7630   -3.3660 C   0  0  0  0  0  0  0  0  0  0  0  0
    2.4530    0.4090   -0.6280 S   0  0  0  0  0  0  0  0  0  0  0  0
    0.2330    1.1940   -4.8280 C   0  0  0  0  0  0  0  0  0  0  0  0
   -4.6700   -1.3940   -1.2780 O   0  0  0  0  0  0  0  0  0  0  0  0
   -2.4520    0.4510    2.4060 O   0  0  0  0  0  0  0  0  0  0  0  0
   -0.2260    0.3510   -6.0020 C   0  0  0  0  0  0  0  0  0  0  0  0
    0.1950   -0.8410   -3.4360 C   0  0  0  0  0  0  0  0  0  0  0  0
    2.7720   -0.1620   -2.3120 C   0  0  0  0  0  0  0  0  0  0  0  0
   -0.3480   -1.0510   -5.9160 C   0  0  0  0  0  0  0  0  0  0  0  0
    2.7110    1.8060   -3.7170 O   0  0  0  0  0  0  0  0  0  0  0  0
   -2.3250   -1.4540   -2.8480 C   0  0  0  0  0  0  0  0  0  0  0  0
   -4.8480   -0.4800    1.2900 C   0  0  0  0  0  0  0  0  0  0  0  0
    0.0710   -1.7650   -4.6530 C   0  0  0  0  0  0  0  0  0  0  0  0
    0.5240    1.0040    1.8910 C   0  0  0  0  0  0  0  0  0  0  0  0
   -0.6000    0.9980   -7.1910 C   0  0  0  0  0  0  0  0  0  0  0  0
   -0.8040   -1.7810   -7.0240 C   0  0  0  0  0  0  0  0  0  0  0  0
    0.9540   -0.0360    2.9100 C   0  0  0  0  0  0  0  0  0  0  0  0
   -1.0620    0.2640   -8.2860 C   0  0  0  0  0  0  0  0  0  0  0  0
    1.4560    0.5870    4.1920 C   0  0  0  0  0  0  0  0  0  0  0  0
   -1.1620   -1.1240   -8.2020 C   0  0  0  0  0  0  0  0  0  0  0  0
    0.9020    1.9730   -5.1930 H   0  0  0  0  0  0  0  0  0  0  0  0
   -0.6390    1.6530   -4.3610 H   0  0  0  0  0  0  0  0  0  0  0  0
   -0.8000   -0.5600   -3.0910 H   0  0  0  0  0  0  0  0  0  0  0  0
    0.7220   -1.3630   -2.6370 H   0  0  0  0  0  0  0  0  0  0  0  0
    3.8500   -0.2130   -2.4660 H   0  0  0  0  0  0  0  0  0  0  0  0
    2.3400   -1.1560   -2.4320 H   0  0  0  0  0  0  0  0  0  0  0  0
   -1.3030   -1.3590   -3.2140 H   0  0  0  0  0  0  0  0  0  0  0  0
   -2.9940   -0.8720   -3.4820 H   0  0  0  0  0  0  0  0  0  0  0  0
   -2.6230   -2.5020   -2.8710 H   0  0  0  0  0  0  0  0  0  0  0  0
   -5.6270   -0.8910    0.6470 H   0  0  0  0  0  0  0  0  0  0  0  0
   -5.1150    0.5360    1.5800 H   0  0  0  0  0  0  0  0  0  0  0  0
   -4.7500   -1.0980    2.1820 H   0  0  0  0  0  0  0  0  0  0  0  0
   -0.6700   -2.5320   -4.4290 H   0  0  0  0  0  0  0  0  0  0  0  0
    1.0390   -2.2350   -4.8280 H   0  0  0  0  0  0  0  0  0  0  0  0
   -0.2680    1.6130    2.3260 H   0  0  0  0  0  0  0  0  0  0  0  0
    1.3800    1.6360    1.6540 H   0  0  0  0  0  0  0  0  0  0  0  0
   -0.5300    2.0740   -7.2590 H   0  0  0  0  0  0  0  0  0  0  0  0
   -0.8780   -2.8570   -6.9650 H   0  0  0  0  0  0  0  0  0  0  0  0
    1.7520   -0.6400    2.4780 H   0  0  0  0  0  0  0  0  0  0  0  0
    0.1010   -0.6730    3.1410 H   0  0  0  0  0  0  0  0  0  0  0  0
   -1.3420    0.7720   -9.1970 H   0  0  0  0  0  0  0  0  0  0  0  0
    2.3110    1.2280    3.9740 H   0  0  0  0  0  0  0  0  0  0  0  0
    1.7580   -0.1990    4.8840 H   0  0  0  0  0  0  0  0  0  0  0  0
    0.6610    1.1820    4.6420 H   0  0  0  0  0  0  0  0  0  0  0  0
   -1.5170   -1.6910   -9.0500 H   0  0  0  0  0  0  0  0  0  0  0  0
  1  2  2  0  0  0  0
  1  3  1  0  0  0  0
  1  4  1  0  0  0  0
  2  7  1  0  0  0  0
  2  9  1  0  0  0  0
  3  8  2  0  0  0  0
  4  6  1  0  0  0  0
  4 21  1  0  0  0  0
  5  6  1  0  0  0  0
  5  7  1  0  0  0  0
  5 22  1  0  0  0  0
  6 14  2  0  0  0  0
  7 15  2  0  0  0  0
  8  9  1  0  0  0  0
  8 12  1  0  0  0  0
  9 24  1  0  0  0  0
 10 11  1  0  0  0  0
 10 13  1  0  0  0  0
 10 17  1  0  0  0  0
 11 18  1  0  0  0  0
 11 20  2  0  0  0  0
 12 18  1  0  0  0  0
 13 16  1  0  0  0  0
 13 31  1  0  0  0  0
 13 32  1  0  0  0  0
 16 19  2  0  0  0  0
 16 25  1  0  0  0  0
 17 23  1  0  0  0  0
 17 33  1  0  0  0  0
 17 34  1  0  0  0  0
 18 35  1  0  0  0  0
 18 36  1  0  0  0  0
 19 23  1  0  0  0  0
 19 26  1  0  0  0  0
 21 37  1  0  0  0  0
 21 38  1  0  0  0  0
 21 39  1  0  0  0  0
 22 40  1  0  0  0  0
 22 41  1  0  0  0  0
 22 42  1  0  0  0  0
 23 43  1  0  0  0  0
 23 44  1  0  0  0  0
 24 27  1  0  0  0  0
 24 45  1  0  0  0  0
 24 46  1  0  0  0  0
 25 28  2  0  0  0  0
 25 47  1  0  0  0  0
 26 30  2  0  0  0  0
 26 48  1  0  0  0  0
 27 29  1  0  0  0  0
 27 49  1  0  0  0  0
 27 50  1  0  0  0  0
 28 30  1  0  0  0  0
 28 51  1  0  0  0  0
 29 52  1  0  0  0  0
 29 53  1  0  0  0  0
 29 54  1  0  0  0  0
 30 55  1  0  0  0  0
M  END
>  <$CLUSTER>
208

>  <INDEX>
132386

$$$$
Asinex ASN 04028477
  MOE2020           3D

 47 49  0  0  0  0  0  0  0  0999 V2000
   -0.1220   -0.4150   -1.0910 N   0  0  0  0  0  0  0  0  0  0  0  0
    0.1510   -0.4200    0.2640 C   0  0  0  0  0  0  0  0  0  0  0  0
    0.1210   -1.6690    0.6940 N   0  0  0  0  0  0  0  0  0  0  0  0
   -0.2760   -1.7340   -1.4370 C   0  0  0  0  0  0  0  0  0  0  0  0
   -0.1330   -2.4920   -0.3750 N   0  0  0  0  0  0  0  0  0  0  0  0
    0.3840    0.7440    1.1040 C   0  0  0  0  0  0  0  0  0  0  0  0
   -0.6370   -2.2750   -3.0410 S   0  0  0  0  0  0  0  0  0  0  0  0
   -1.9650   -4.4830   -2.0100 C   0  0  0  0  0  0  0  0  0  0  0  0
   -3.4770   -3.8040    0.8230 C   0  0  0  0  0  0  0  0  0  0  0  0
   -4.5730   -3.4270    0.1200 O   0  0  0  0  0  0  0  0  0  0  0  0
   -1.7470   -4.6420   -0.6840 N   0  0  0  0  0  0  0  0  0  0  0  0
   -3.2530   -2.9750    1.8840 C   0  0  0  0  0  0  0  0  0  0  0  0
   -5.0640   -2.3300    0.7520 C   0  0  0  0  0  0  0  0  0  0  0  0
   -0.3280    2.1030    2.9830 N   0  0  0  0  0  0  0  0  0  0  0  0
   -4.2890   -2.0110    1.8420 C   0  0  0  0  0  0  0  0  0  0  0  0
   -3.0750   -4.5860   -2.5190 O   0  0  0  0  0  0  0  0  0  0  0  0
   -0.2370    0.7490   -1.9510 C   0  0  0  0  0  0  0  0  0  0  0  0
   -0.7310   -4.0630   -2.8030 C   0  0  0  0  0  0  0  0  0  0  0  0
   -2.7390   -5.0200    0.2920 C   0  0  0  0  0  0  0  0  0  0  0  0
   -0.4830    1.0500    2.1470 C   0  0  0  0  0  0  0  0  0  0  0  0
    1.4970    1.5690    0.9340 C   0  0  0  0  0  0  0  0  0  0  0  0
    0.7550    2.8830    2.7740 C   0  0  0  0  0  0  0  0  0  0  0  0
   -1.6500    1.3080   -1.9780 C   0  0  0  0  0  0  0  0  0  0  0  0
    1.6880    2.6610    1.7760 C   0  0  0  0  0  0  0  0  0  0  0  0
   -1.7700    2.5190   -2.8880 C   0  0  0  0  0  0  0  0  0  0  0  0
   -3.1860    3.0700   -2.9080 C   0  0  0  0  0  0  0  0  0  0  0  0
   -0.8080   -4.4820   -0.3490 H   0  0  0  0  0  0  0  0  0  0  0  0
   -2.4520   -3.0410    2.6050 H   0  0  0  0  0  0  0  0  0  0  0  0
   -5.9420   -1.7830    0.4410 H   0  0  0  0  0  0  0  0  0  0  0  0
   -4.4400   -1.1910    2.5280 H   0  0  0  0  0  0  0  0  0  0  0  0
    0.0470    0.4660   -2.9640 H   0  0  0  0  0  0  0  0  0  0  0  0
    0.4390    1.5220   -1.5870 H   0  0  0  0  0  0  0  0  0  0  0  0
    0.1580   -4.3910   -2.2650 H   0  0  0  0  0  0  0  0  0  0  0  0
   -0.7630   -4.5440   -3.7800 H   0  0  0  0  0  0  0  0  0  0  0  0
   -3.4560   -5.6960   -0.1730 H   0  0  0  0  0  0  0  0  0  0  0  0
   -2.2470   -5.5270    1.1220 H   0  0  0  0  0  0  0  0  0  0  0  0
   -1.3360    0.4050    2.3000 H   0  0  0  0  0  0  0  0  0  0  0  0
    2.2100    1.3600    0.1500 H   0  0  0  0  0  0  0  0  0  0  0  0
    0.9020    3.7320    3.4260 H   0  0  0  0  0  0  0  0  0  0  0  0
   -1.9320    1.6000   -0.9660 H   0  0  0  0  0  0  0  0  0  0  0  0
   -2.3280    0.5320   -2.3340 H   0  0  0  0  0  0  0  0  0  0  0  0
    2.5390    3.3150    1.6540 H   0  0  0  0  0  0  0  0  0  0  0  0
   -1.4900    2.2290   -3.9010 H   0  0  0  0  0  0  0  0  0  0  0  0
   -1.0940    3.2960   -2.5320 H   0  0  0  0  0  0  0  0  0  0  0  0
   -3.8710    2.3000   -3.2630 H   0  0  0  0  0  0  0  0  0  0  0  0
   -3.2310    3.9310   -3.5750 H   0  0  0  0  0  0  0  0  0  0  0  0
   -3.4720    3.3750   -1.9010 H   0  0  0  0  0  0  0  0  0  0  0  0
  1  2  1  0  0  0  0
  1  4  1  0  0  0  0
  1 17  1  0  0  0  0
  2  3  2  0  0  0  0
  2  6  1  0  0  0  0
  3  5  1  0  0  0  0
  4  5  2  0  0  0  0
  4  7  1  0  0  0  0
  6 20  2  0  0  0  0
  6 21  1  0  0  0  0
  7 18  1  0  0  0  0
  8 11  1  0  0  0  0
  8 16  2  0  0  0  0
  8 18  1  0  0  0  0
  9 10  1  0  0  0  0
  9 12  2  0  0  0  0
  9 19  1  0  0  0  0
 10 13  1  0  0  0  0
 11 19  1  0  0  0  0
 11 27  1  0  0  0  0
 12 15  1  0  0  0  0
 12 28  1  0  0  0  0
 13 15  2  0  0  0  0
 13 29  1  0  0  0  0
 14 20  1  0  0  0  0
 14 22  2  0  0  0  0
 15 30  1  0  0  0  0
 17 23  1  0  0  0  0
 17 31  1  0  0  0  0
 17 32  1  0  0  0  0
 18 33  1  0  0  0  0
 18 34  1  0  0  0  0
 19 35  1  0  0  0  0
 19 36  1  0  0  0  0
 20 37  1  0  0  0  0
 21 24  2  0  0  0  0
 21 38  1  0  0  0  0
 22 24  1  0  0  0  0
 22 39  1  0  0  0  0
 23 25  1  0  0  0  0
 23 40  1  0  0  0  0
 23 41  1  0  0  0  0
 24 42  1  0  0  0  0
 25 26  1  0  0  0  0
 25 43  1  0  0  0  0
 25 44  1  0  0  0  0
 26 45  1  0  0  0  0
 26 46  1  0  0  0  0
 26 47  1  0  0  0  0
M  END
>  <$CLUSTER>
209

>  <INDEX>
135937

$$$$
Specs AG-690/11303140
  MOE2020           3D

 35 38  0  0  0  0  0  0  0  0999 V2000
   -0.1020    1.3290   -0.3050 N   0  0  0  0  0  0  0  0  0  0  0  0
   -1.1770    0.4980   -0.6040 C   0  0  0  0  0  0  0  0  0  0  0  0
    1.0860    0.8060    0.1900 C   0  0  0  0  0  0  0  0  0  0  0  0
   -0.3960    2.6320   -0.5540 N   0  0  0  0  0  0  0  0  0  0  0  0
    1.2250   -0.5110    0.3990 C   0  0  0  0  0  0  0  0  0  0  0  0
   -1.0960   -0.8520   -0.4470 N   0  0  0  0  0  0  0  0  0  0  0  0
   -2.1890    1.3170   -1.0500 C   0  0  0  0  0  0  0  0  0  0  0  0
   -1.6520    2.6110   -0.9980 C   0  0  0  0  0  0  0  0  0  0  0  0
    0.0260   -1.3290    0.0170 C   0  0  0  0  0  0  0  0  0  0  0  0
   -2.3280    3.8850   -1.3770 C   0  0  0  0  0  0  0  0  0  0  0  0
    2.0980    1.6630    0.4540 O   0  0  0  0  0  0  0  0  0  0  0  0
   -3.6120    3.8730   -1.9440 C   0  0  0  0  0  0  0  0  0  0  0  0
   -1.7000    5.1250   -1.1770 C   0  0  0  0  0  0  0  0  0  0  0  0
    2.4520   -1.1430    0.9680 C   0  0  0  0  0  0  0  0  0  0  0  0
   -3.6120    6.2880   -2.0940 C   0  0  0  0  0  0  0  0  0  0  0  0
   -2.3380    6.3170   -1.5330 C   0  0  0  0  0  0  0  0  0  0  0  0
   -4.2480    5.0660   -2.2990 C   0  0  0  0  0  0  0  0  0  0  0  0
   -4.1540    7.4640   -2.4060 F   0  0  0  0  0  0  0  0  0  0  0  0
    0.1270   -2.8430    0.1100 C   0  0  0  0  0  0  0  0  0  0  0  0
    2.5640   -2.6300    0.6510 C   0  0  0  0  0  0  0  0  0  0  0  0
    1.2620   -3.3430    0.9900 C   0  0  0  0  0  0  0  0  0  0  0  0
   -3.1790    1.0270   -1.3700 H   0  0  0  0  0  0  0  0  0  0  0  0
    2.8980    1.2540    0.7930 H   0  0  0  0  0  0  0  0  0  0  0  0
   -4.1140    2.9310   -2.1080 H   0  0  0  0  0  0  0  0  0  0  0  0
   -0.7120    5.1580   -0.7430 H   0  0  0  0  0  0  0  0  0  0  0  0
    2.4350   -1.0200    2.0510 H   0  0  0  0  0  0  0  0  0  0  0  0
    3.3250   -0.6350    0.5590 H   0  0  0  0  0  0  0  0  0  0  0  0
   -1.8410    7.2630   -1.3720 H   0  0  0  0  0  0  0  0  0  0  0  0
   -5.2360    5.0400   -2.7340 H   0  0  0  0  0  0  0  0  0  0  0  0
    0.2760   -3.2370   -0.8950 H   0  0  0  0  0  0  0  0  0  0  0  0
   -0.8110   -3.2230    0.5140 H   0  0  0  0  0  0  0  0  0  0  0  0
    3.3740   -3.0630    1.2380 H   0  0  0  0  0  0  0  0  0  0  0  0
    2.7770   -2.7560   -0.4110 H   0  0  0  0  0  0  0  0  0  0  0  0
    1.3900   -4.4140    0.8340 H   0  0  0  0  0  0  0  0  0  0  0  0
    1.0130   -3.1550    2.0350 H   0  0  0  0  0  0  0  0  0  0  0  0
  1  2  1  0  0  0  0
  1  3  1  0  0  0  0
  1  4  1  0  0  0  0
  2  6  1  0  0  0  0
  2  7  2  0  0  0  0
  3  5  2  0  0  0  0
  3 11  1  0  0  0  0
  4  8  2  0  0  0  0
  5  9  1  0  0  0  0
  5 14  1  0  0  0  0
  6  9  2  0  0  0  0
  7  8  1  0  0  0  0
  7 22  1  0  0  0  0
  8 10  1  0  0  0  0
  9 19  1  0  0  0  0
 10 12  1  0  0  0  0
 10 13  2  0  0  0  0
 11 23  1  0  0  0  0
 12 17  2  0  0  0  0
 12 24  1  0  0  0  0
 13 16  1  0  0  0  0
 13 25  1  0  0  0  0
 14 20  1  0  0  0  0
 14 26  1  0  0  0  0
 14 27  1  0  0  0  0
 15 16  2  0  0  0  0
 15 17  1  0  0  0  0
 15 18  1  0  0  0  0
 16 28  1  0  0  0  0
 17 29  1  0  0  0  0
 19 21  1  0  0  0  0
 19 30  1  0  0  0  0
 19 31  1  0  0  0  0
 20 21  1  0  0  0  0
 20 32  1  0  0  0  0
 20 33  1  0  0  0  0
 21 34  1  0  0  0  0
 21 35  1  0  0  0  0
M  END
>  <$CLUSTER>
210

>  <INDEX>
495410

$$$$
Asinex ASN 05588396
  MOE2020           3D

 38 40  0  0  0  0  0  0  0  0999 V2000
   -0.5730    0.6520   -0.0650 C   0  0  0  0  0  0  0  0  0  0  0  0
    0.2200   -0.4740    0.1930 C   0  0  0  0  0  0  0  0  0  0  0  0
    1.3790   -0.7140   -0.4840 N   0  0  0  0  0  0  0  0  0  0  0  0
   -1.7910    0.9100    0.6420 C   0  0  0  0  0  0  0  0  0  0  0  0
    1.0290    1.3160   -1.7460 C   0  0  0  0  0  0  0  0  0  0  0  0
    1.7560    0.1790   -1.4310 C   0  0  0  0  0  0  0  0  0  0  0  0
   -0.1530    1.5550   -1.0510 C   0  0  0  0  0  0  0  0  0  0  0  0
   -2.7850    1.1430    1.2010 N   0  0  0  0  0  0  0  0  0  0  0  0
   -0.2310   -1.6950    1.4400 S   0  0  0  0  0  0  0  0  0  0  0  0
    1.0850   -3.6140   -0.0220 C   0  0  0  0  0  0  0  0  0  0  0  0
    0.1730   -4.8160   -0.0760 C   0  0  0  0  0  0  0  0  0  0  0  0
    1.1490   -2.8700    1.3010 C   0  0  0  0  0  0  0  0  0  0  0  0
    1.4670    2.2090   -2.7400 C   0  0  0  0  0  0  0  0  0  0  0  0
    1.7270   -3.2560   -1.0120 O   0  0  0  0  0  0  0  0  0  0  0  0
    2.9560   -0.0620   -2.1370 C   0  0  0  0  0  0  0  0  0  0  0  0
    0.1080   -5.5070   -1.3060 C   0  0  0  0  0  0  0  0  0  0  0  0
   -0.5630   -5.2470    1.0010 C   0  0  0  0  0  0  0  0  0  0  0  0
    2.6540    1.9570   -3.4270 C   0  0  0  0  0  0  0  0  0  0  0  0
   -1.4590   -7.0630   -0.3250 C   0  0  0  0  0  0  0  0  0  0  0  0
    3.3980    0.8210   -3.1250 C   0  0  0  0  0  0  0  0  0  0  0  0
   -1.3840   -6.3720    0.8830 C   0  0  0  0  0  0  0  0  0  0  0  0
   -0.7130   -6.6300   -1.4180 C   0  0  0  0  0  0  0  0  0  0  0  0
   -2.2660   -8.1240   -0.3490 F   0  0  0  0  0  0  0  0  0  0  0  0
    2.9770    2.8980   -4.3700 O   0  0  0  0  0  0  0  0  0  0  0  0
    4.1800    2.6850   -5.1010 C   0  0  0  0  0  0  0  0  0  0  0  0
   -0.7440    2.4320   -1.2710 H   0  0  0  0  0  0  0  0  0  0  0  0
    1.0920   -3.5880    2.1190 H   0  0  0  0  0  0  0  0  0  0  0  0
    2.0910   -2.3250    1.3610 H   0  0  0  0  0  0  0  0  0  0  0  0
    0.8850    3.0890   -2.9710 H   0  0  0  0  0  0  0  0  0  0  0  0
    3.5400   -0.9420   -1.9090 H   0  0  0  0  0  0  0  0  0  0  0  0
    0.6880   -5.1700   -2.1520 H   0  0  0  0  0  0  0  0  0  0  0  0
   -0.5070   -4.7160    1.9400 H   0  0  0  0  0  0  0  0  0  0  0  0
    4.3180    0.6220   -3.6550 H   0  0  0  0  0  0  0  0  0  0  0  0
   -1.9620   -6.7070    1.7310 H   0  0  0  0  0  0  0  0  0  0  0  0
   -0.7700   -7.1640   -2.3550 H   0  0  0  0  0  0  0  0  0  0  0  0
    4.3210    3.4980   -5.8130 H   0  0  0  0  0  0  0  0  0  0  0  0
    4.1160    1.7380   -5.6380 H   0  0  0  0  0  0  0  0  0  0  0  0
    5.0240    2.6560   -4.4120 H   0  0  0  0  0  0  0  0  0  0  0  0
  1  2  1  0  0  0  0
  1  4  1  0  0  0  0
  1  7  2  0  0  0  0
  2  3  2  0  0  0  0
  2  9  1  0  0  0  0
  3  6  1  0  0  0  0
  4  8  3  0  0  0  0
  5  6  2  0  0  0  0
  5  7  1  0  0  0  0
  5 13  1  0  0  0  0
  6 15  1  0  0  0  0
  7 26  1  0  0  0  0
  9 12  1  0  0  0  0
 10 11  1  0  0  0  0
 10 12  1  0  0  0  0
 10 14  2  0  0  0  0
 11 16  1  0  0  0  0
 11 17  2  0  0  0  0
 12 27  1  0  0  0  0
 12 28  1  0  0  0  0
 13 18  2  0  0  0  0
 13 29  1  0  0  0  0
 15 20  2  0  0  0  0
 15 30  1  0  0  0  0
 16 22  2  0  0  0  0
 16 31  1  0  0  0  0
 17 21  1  0  0  0  0
 17 32  1  0  0  0  0
 18 20  1  0  0  0  0
 18 24  1  0  0  0  0
 19 21  2  0  0  0  0
 19 22  1  0  0  0  0
 19 23  1  0  0  0  0
 20 33  1  0  0  0  0
 21 34  1  0  0  0  0
 22 35  1  0  0  0  0
 24 25  1  0  0  0  0
 25 36  1  0  0  0  0
 25 37  1  0  0  0  0
 25 38  1  0  0  0  0
M  END
>  <$CLUSTER>
211

>  <INDEX>
149597

$$$$
Asinex ASN 04454657
  MOE2020           3D

 50 53  0  0  0  0  0  0  0  0999 V2000
   -0.4190   -0.6120    0.4920 N   0  0  0  0  0  0  0  0  0  0  0  0
    0.3640   -1.4230   -0.3320 C   0  0  0  0  0  0  0  0  0  0  0  0
   -1.2890   -1.1570    1.4840 C   0  0  0  0  0  0  0  0  0  0  0  0
    1.0710   -0.6830   -1.1560 N   0  0  0  0  0  0  0  0  0  0  0  0
   -0.1030    0.6720    0.0750 C   0  0  0  0  0  0  0  0  0  0  0  0
    0.7790    0.6250   -0.9010 N   0  0  0  0  0  0  0  0  0  0  0  0
   -1.3170   -2.5660    1.5910 C   0  0  0  0  0  0  0  0  0  0  0  0
    0.3110   -2.8300   -0.1970 C   0  0  0  0  0  0  0  0  0  0  0  0
   -0.4850   -3.3960    0.7150 C   0  0  0  0  0  0  0  0  0  0  0  0
   -2.0950   -0.3950    2.3320 C   0  0  0  0  0  0  0  0  0  0  0  0
   -2.1440   -3.1830    2.5390 C   0  0  0  0  0  0  0  0  0  0  0  0
   -0.7360    2.1570    0.7040 S   0  0  0  0  0  0  0  0  0  0  0  0
   -2.9160   -1.0240    3.2740 C   0  0  0  0  0  0  0  0  0  0  0  0
   -2.9420   -2.4120    3.3780 C   0  0  0  0  0  0  0  0  0  0  0  0
   -0.3680    3.3850   -1.7540 C   0  0  0  0  0  0  0  0  0  0  0  0
    0.3880    2.6410   -2.5950 N   0  0  0  0  0  0  0  0  0  0  0  0
   -1.3980    3.9480   -2.1070 O   0  0  0  0  0  0  0  0  0  0  0  0
    0.1180    3.3860   -0.3070 C   0  0  0  0  0  0  0  0  0  0  0  0
    1.1720   -3.6650   -1.1060 C   0  0  0  0  0  0  0  0  0  0  0  0
    0.1540    2.4630   -4.0150 C   0  0  0  0  0  0  0  0  0  0  0  0
   -3.7740   -0.1900    4.1760 C   0  0  0  0  0  0  0  0  0  0  0  0
   -3.8230   -3.0730    4.3870 C   0  0  0  0  0  0  0  0  0  0  0  0
    0.6680    1.1100   -4.4960 C   0  0  0  0  0  0  0  0  0  0  0  0
    0.7870    3.6020   -4.8090 C   0  0  0  0  0  0  0  0  0  0  0  0
    0.7100    1.4080   -6.0420 C   0  0  0  0  0  0  0  0  0  0  0  0
    0.7830    2.9220   -6.2350 C   0  0  0  0  0  0  0  0  0  0  0  0
   -0.5150   -4.4720    0.8070 H   0  0  0  0  0  0  0  0  0  0  0  0
   -2.0850    0.6830    2.2610 H   0  0  0  0  0  0  0  0  0  0  0  0
   -2.1620   -4.2600    2.6190 H   0  0  0  0  0  0  0  0  0  0  0  0
    1.1870    2.1670   -2.1980 H   0  0  0  0  0  0  0  0  0  0  0  0
    1.1860    3.1680   -0.2960 H   0  0  0  0  0  0  0  0  0  0  0  0
   -0.0560    4.3740    0.1200 H   0  0  0  0  0  0  0  0  0  0  0  0
    1.7390   -3.0120   -1.7690 H   0  0  0  0  0  0  0  0  0  0  0  0
    0.5400   -4.3260   -1.6990 H   0  0  0  0  0  0  0  0  0  0  0  0
    1.8600   -4.2620   -0.5070 H   0  0  0  0  0  0  0  0  0  0  0  0
   -0.9230    2.4840   -4.1840 H   0  0  0  0  0  0  0  0  0  0  0  0
   -3.6210    0.8650    3.9500 H   0  0  0  0  0  0  0  0  0  0  0  0
   -3.5030   -0.3820    5.2140 H   0  0  0  0  0  0  0  0  0  0  0  0
   -4.8220   -0.4470    4.0200 H   0  0  0  0  0  0  0  0  0  0  0  0
   -3.7070   -4.1550    4.3180 H   0  0  0  0  0  0  0  0  0  0  0  0
   -4.8620   -2.8060    4.1930 H   0  0  0  0  0  0  0  0  0  0  0  0
   -3.5430   -2.7410    5.3870 H   0  0  0  0  0  0  0  0  0  0  0  0
   -0.0200    0.3000   -4.2530 H   0  0  0  0  0  0  0  0  0  0  0  0
    1.6550    0.8810   -4.0960 H   0  0  0  0  0  0  0  0  0  0  0  0
    1.7960    3.8310   -4.4660 H   0  0  0  0  0  0  0  0  0  0  0  0
    0.1800    4.5070   -4.7840 H   0  0  0  0  0  0  0  0  0  0  0  0
   -0.1900    1.0180   -6.5170 H   0  0  0  0  0  0  0  0  0  0  0  0
    1.5880    0.9370   -6.4850 H   0  0  0  0  0  0  0  0  0  0  0  0
    1.6960    3.1820   -6.7700 H   0  0  0  0  0  0  0  0  0  0  0  0
   -0.0820    3.2630   -6.8040 H   0  0  0  0  0  0  0  0  0  0  0  0
  1  2  1  0  0  0  0
  1  3  1  0  0  0  0
  1  5  1  0  0  0  0
  2  4  2  0  0  0  0
  2  8  1  0  0  0  0
  3  7  2  0  0  0  0
  3 10  1  0  0  0  0
  4  6  1  0  0  0  0
  5  6  2  0  0  0  0
  5 12  1  0  0  0  0
  7  9  1  0  0  0  0
  7 11  1  0  0  0  0
  8  9  2  0  0  0  0
  8 19  1  0  0  0  0
  9 27  1  0  0  0  0
 10 13  2  0  0  0  0
 10 28  1  0  0  0  0
 11 14  2  0  0  0  0
 11 29  1  0  0  0  0
 12 18  1  0  0  0  0
 13 14  1  0  0  0  0
 13 21  1  0  0  0  0
 14 22  1  0  0  0  0
 15 16  1  0  0  0  0
 15 17  2  0  0  0  0
 15 18  1  0  0  0  0
 16 20  1  0  0  0  0
 16 30  1  0  0  0  0
 18 31  1  0  0  0  0
 18 32  1  0  0  0  0
 19 33  1  0  0  0  0
 19 34  1  0  0  0  0
 19 35  1  0  0  0  0
 20 23  1  0  0  0  0
 20 24  1  0  0  0  0
 20 36  1  0  0  0  0
 21 37  1  0  0  0  0
 21 38  1  0  0  0  0
 21 39  1  0  0  0  0
 22 40  1  0  0  0  0
 22 41  1  0  0  0  0
 22 42  1  0  0  0  0
 23 25  1  0  0  0  0
 23 43  1  0  0  0  0
 23 44  1  0  0  0  0
 24 26  1  0  0  0  0
 24 45  1  0  0  0  0
 24 46  1  0  0  0  0
 25 26  1  0  0  0  0
 25 47  1  0  0  0  0
 25 48  1  0  0  0  0
 26 49  1  0  0  0  0
 26 50  1  0  0  0  0
M  END
>  <$CLUSTER>
212

>  <INDEX>
139454

$$$$
Asinex ASN 04189013
  MOE2020           3D

 59 63  0  0  1  0  0  0  0  0999 V2000
    1.8380    1.8350    0.7730 C   0  0  0  0  0  0  0  0  0  0  0  0
    0.3540   -0.1260    0.4020 C   0  0  0  0  0  0  0  0  0  0  0  0
   -0.0470   -0.4570   -0.8660 N   0  0  0  0  0  0  0  0  0  0  0  0
    2.0990    2.3980   -0.6430 C   0  0  0  0  0  0  0  0  0  0  0  0
    0.4390    1.2570    0.9440 C   0  0  3  0  0  0  0  0  0  0  0  0
    2.8740    1.9170    1.6220 C   0  0  0  0  0  0  0  0  0  0  0  0
    0.4150   -2.2650    0.1380 N   0  0  0  0  0  0  0  0  0  0  0  0
   -0.0120   -1.7910   -1.0230 N   0  0  0  0  0  0  0  0  0  0  0  0
    0.6480   -1.2480    1.0320 N   0  0  0  0  0  0  0  0  0  0  0  0
    3.3490    2.9160   -0.8850 N   0  0  0  0  0  0  0  0  0  0  0  0
    4.1570    2.4830    1.2720 C   0  0  0  0  0  0  0  0  0  0  0  0
    4.3560    2.9610    0.0390 C   0  0  0  0  0  0  0  0  0  0  0  0
    0.1020    1.3040    2.4000 N   0  3  0  0  0  0  0  0  0  0  0  0
    5.6190    3.5190   -0.3130 C   0  0  0  0  0  0  0  0  0  0  0  0
    5.1870    2.5110    2.2630 C   0  0  0  0  0  0  0  0  0  0  0  0
   -0.4650    0.3940   -1.9550 C   0  0  0  0  0  0  0  0  0  0  0  0
    6.4260    3.0570    1.9190 C   0  0  0  0  0  0  0  0  0  0  0  0
    6.6400    3.5600    0.6350 C   0  0  0  0  0  0  0  0  0  0  0  0
    1.2150    2.3790   -1.4940 O   0  0  0  0  0  0  0  0  0  0  0  0
    0.2470    2.0240    5.2190 O   0  0  0  0  0  0  0  0  0  0  0  0
   -1.9670    0.6180   -1.9670 C   0  0  0  0  0  0  0  0  0  0  0  0
   -4.7460    1.0160   -1.9790 C   0  0  0  0  0  0  0  0  0  0  0  0
   -6.0730    1.1320   -2.0310 F   0  0  0  0  0  0  0  0  0  0  0  0
   -2.5200    1.7880   -1.4250 C   0  0  0  0  0  0  0  0  0  0  0  0
   -2.8250   -0.3580   -2.4970 C   0  0  0  0  0  0  0  0  0  0  0  0
   -3.9040    1.9870   -1.4350 C   0  0  0  0  0  0  0  0  0  0  0  0
   -4.2070   -0.1570   -2.5070 C   0  0  0  0  0  0  0  0  0  0  0  0
    1.0090    0.6180    3.3880 C   0  0  0  0  0  0  0  0  0  0  0  0
   -0.3190    2.6650    2.9200 C   0  0  0  0  0  0  0  0  0  0  0  0
    7.9670    4.1460    0.2730 C   0  0  0  0  0  0  0  0  0  0  0  0
    7.5240    3.1010    2.9320 C   0  0  0  0  0  0  0  0  0  0  0  0
    0.5260    0.6720    4.7980 C   0  0  0  0  0  0  0  0  0  0  0  0
   -0.7540    2.6360    4.3760 C   0  0  0  0  0  0  0  0  0  0  0  0
   -0.2830    1.8460    0.3790 H   0  0  0  0  0  0  0  0  0  0  0  0
    2.7410    1.5380    2.6250 H   0  0  0  0  0  0  0  0  0  0  0  0
    3.5360    3.2880   -1.8050 H   0  0  0  0  0  0  0  0  0  0  0  0
   -0.7070    0.7000    2.3630 H   0  0  0  0  0  0  0  0  0  0  0  0
    5.7840    3.9070   -1.3070 H   0  0  0  0  0  0  0  0  0  0  0  0
    5.0110    2.1190    3.2540 H   0  0  0  0  0  0  0  0  0  0  0  0
   -0.1720   -0.0720   -2.8960 H   0  0  0  0  0  0  0  0  0  0  0  0
    0.0330    1.3590   -1.8570 H   0  0  0  0  0  0  0  0  0  0  0  0
   -1.8730    2.5390   -0.9970 H   0  0  0  0  0  0  0  0  0  0  0  0
   -2.4130   -1.2710   -2.9000 H   0  0  0  0  0  0  0  0  0  0  0  0
   -4.3220    2.8930   -1.0210 H   0  0  0  0  0  0  0  0  0  0  0  0
   -4.8590   -0.9100   -2.9240 H   0  0  0  0  0  0  0  0  0  0  0  0
    1.9880    1.0960    3.3430 H   0  0  0  0  0  0  0  0  0  0  0  0
    1.1020   -0.4290    3.0980 H   0  0  0  0  0  0  0  0  0  0  0  0
   -1.1520    3.0250    2.3160 H   0  0  0  0  0  0  0  0  0  0  0  0
    0.5230    3.3500    2.8230 H   0  0  0  0  0  0  0  0  0  0  0  0
    7.9450    4.4840   -0.7630 H   0  0  0  0  0  0  0  0  0  0  0  0
    8.7430    3.3900    0.3920 H   0  0  0  0  0  0  0  0  0  0  0  0
    8.1810    4.9920    0.9260 H   0  0  0  0  0  0  0  0  0  0  0  0
    7.1730    2.6660    3.8680 H   0  0  0  0  0  0  0  0  0  0  0  0
    7.8210    4.1360    3.1010 H   0  0  0  0  0  0  0  0  0  0  0  0
    8.3790    2.5330    2.5660 H   0  0  0  0  0  0  0  0  0  0  0  0
   -0.3860    0.0820    4.8810 H   0  0  0  0  0  0  0  0  0  0  0  0
    1.2920    0.2510    5.4490 H   0  0  0  0  0  0  0  0  0  0  0  0
   -0.9240    3.6580    4.7140 H   0  0  0  0  0  0  0  0  0  0  0  0
   -1.6800    2.0670    4.4570 H   0  0  0  0  0  0  0  0  0  0  0  0
  1  4  1  0  0  0  0
  1  5  1  0  0  0  0
  1  6  2  0  0  0  0
  2  3  1  0  0  0  0
  2  5  1  0  0  0  0
  2  9  2  0  0  0  0
  3  8  1  0  0  0  0
  3 16  1  0  0  0  0
  4 10  1  0  0  0  0
  4 19  2  0  0  0  0
  5 13  1  0  0  0  0
  5 34  1  0  0  0  0
  6 11  1  0  0  0  0
  6 35  1  0  0  0  0
  7  8  2  0  0  0  0
  7  9  1  0  0  0  0
 10 12  1  0  0  0  0
 10 36  1  0  0  0  0
 11 12  2  0  0  0  0
 11 15  1  0  0  0  0
 12 14  1  0  0  0  0
 13 28  1  0  0  0  0
 13 29  1  0  0  0  0
 13 37  1  0  0  0  0
 14 18  2  0  0  0  0
 14 38  1  0  0  0  0
 15 17  2  0  0  0  0
 15 39  1  0  0  0  0
 16 21  1  0  0  0  0
 16 40  1  0  0  0  0
 16 41  1  0  0  0  0
 17 18  1  0  0  0  0
 17 31  1  0  0  0  0
 18 30  1  0  0  0  0
 20 32  1  0  0  0  0
 20 33  1  0  0  0  0
 21 24  2  0  0  0  0
 21 25  1  0  0  0  0
 22 23  1  0  0  0  0
 22 26  2  0  0  0  0
 22 27  1  0  0  0  0
 24 26  1  0  0  0  0
 24 42  1  0  0  0  0
 25 27  2  0  0  0  0
 25 43  1  0  0  0  0
 26 44  1  0  0  0  0
 27 45  1  0  0  0  0
 28 32  1  0  0  0  0
 28 46  1  0  0  0  0
 28 47  1  0  0  0  0
 29 33  1  0  0  0  0
 29 48  1  0  0  0  0
 29 49  1  0  0  0  0
 30 50  1  0  0  0  0
 30 51  1  0  0  0  0
 30 52  1  0  0  0  0
 31 53  1  0  0  0  0
 31 54  1  0  0  0  0
 31 55  1  0  0  0  0
 32 56  1  0  0  0  0
 32 57  1  0  0  0  0
 33 58  1  0  0  0  0
 33 59  1  0  0  0  0
M  CHG  1  13   1
M  END
>  <$CLUSTER>
213

>  <INDEX>
136508

$$$$
Asinex ASN 04448059
  MOE2020           3D

 52 54  0  0  0  0  0  0  0  0999 V2000
    6.2080    4.5960   -4.2950 S   0  0  0  0  0  0  0  0  0  0  0  0
    5.2480    4.2850   -5.6310 N   0  0  0  0  0  0  0  0  0  0  0  0
   -0.4480   -0.4040   -0.3570 C   0  0  0  0  0  0  0  0  0  0  0  0
    0.4380    0.4030    0.3580 C   0  0  0  0  0  0  0  0  0  0  0  0
   -1.9060   -0.3970   -0.1020 C   0  0  0  0  0  0  0  0  0  0  0  0
    5.2290    4.0140   -2.9550 C   0  0  0  0  0  0  0  0  0  0  0  0
    6.3410    6.0380   -4.1770 O   0  0  0  0  0  0  0  0  0  0  0  0
    7.3930    3.7640   -4.4020 O   0  0  0  0  0  0  0  0  0  0  0  0
   -0.1100    1.5270    1.6570 S   0  0  0  0  0  0  0  0  0  0  0  0
    2.0420    3.1960    1.1190 C   0  0  0  0  0  0  0  0  0  0  0  0
    1.7810    0.3910    0.1180 N   0  0  0  0  0  0  0  0  0  0  0  0
    2.9540    2.6160    0.3040 N   0  0  0  0  0  0  0  0  0  0  0  0
    5.0340    2.8660   -6.0190 C   0  0  0  0  0  0  0  0  0  0  0  0
    4.0070    5.0870   -5.8000 C   0  0  0  0  0  0  0  0  0  0  0  0
   -2.3540   -1.2320    0.7430 O   0  0  0  0  0  0  0  0  0  0  0  0
    1.6590    4.3510    0.9730 O   0  0  0  0  0  0  0  0  0  0  0  0
    4.3290    4.8690   -2.3240 C   0  0  0  0  0  0  0  0  0  0  0  0
    5.3700    2.7060   -2.5030 C   0  0  0  0  0  0  0  0  0  0  0  0
    1.4670    2.2640    2.1790 C   0  0  0  0  0  0  0  0  0  0  0  0
    3.7030    3.1090   -0.7770 C   0  0  0  0  0  0  0  0  0  0  0  0
   -2.6140    0.4070   -0.7840 O   0  5  0  0  0  0  0  0  0  0  0  0
    3.5680    4.4210   -1.2390 C   0  0  0  0  0  0  0  0  0  0  0  0
    4.6120    2.2560   -1.4200 C   0  0  0  0  0  0  0  0  0  0  0  0
    4.4730    2.7230   -7.4310 C   0  0  0  0  0  0  0  0  0  0  0  0
    3.4300    4.9820   -7.2070 C   0  0  0  0  0  0  0  0  0  0  0  0
    0.0680   -1.2510   -1.3540 C   0  0  0  0  0  0  0  0  0  0  0  0
    3.1860    3.5280   -7.6190 C   0  0  0  0  0  0  0  0  0  0  0  0
    2.2440   -0.4380   -0.8510 C   0  0  0  0  0  0  0  0  0  0  0  0
    2.6870    3.4400   -9.0590 C   0  0  0  0  0  0  0  0  0  0  0  0
    1.4350   -1.2700   -1.6060 C   0  0  0  0  0  0  0  0  0  0  0  0
    3.1290    1.6440    0.5130 H   0  0  0  0  0  0  0  0  0  0  0  0
    4.3330    2.4140   -5.3170 H   0  0  0  0  0  0  0  0  0  0  0  0
    5.9880    2.3420   -5.9680 H   0  0  0  0  0  0  0  0  0  0  0  0
    4.2360    6.1320   -5.5930 H   0  0  0  0  0  0  0  0  0  0  0  0
    3.2610    4.7310   -5.0890 H   0  0  0  0  0  0  0  0  0  0  0  0
    4.2180    5.8840   -2.6750 H   0  0  0  0  0  0  0  0  0  0  0  0
    6.0660    2.0390   -2.9900 H   0  0  0  0  0  0  0  0  0  0  0  0
    2.1830    1.4640    2.3700 H   0  0  0  0  0  0  0  0  0  0  0  0
    1.3040    2.8320    3.0950 H   0  0  0  0  0  0  0  0  0  0  0  0
    2.8730    5.0920   -0.7560 H   0  0  0  0  0  0  0  0  0  0  0  0
    4.7270    1.2400   -1.0740 H   0  0  0  0  0  0  0  0  0  0  0  0
    4.2610    1.6710   -7.6210 H   0  0  0  0  0  0  0  0  0  0  0  0
    5.2180    3.0780   -8.1430 H   0  0  0  0  0  0  0  0  0  0  0  0
    4.1300    5.4340   -7.9090 H   0  0  0  0  0  0  0  0  0  0  0  0
    2.4830    5.5210   -7.2400 H   0  0  0  0  0  0  0  0  0  0  0  0
   -0.5960   -1.8850   -1.9230 H   0  0  0  0  0  0  0  0  0  0  0  0
    2.4080    3.1060   -6.9830 H   0  0  0  0  0  0  0  0  0  0  0  0
    3.3060   -0.4500   -1.0450 H   0  0  0  0  0  0  0  0  0  0  0  0
    3.4390    3.8540   -9.7300 H   0  0  0  0  0  0  0  0  0  0  0  0
    1.7610    4.0060   -9.1580 H   0  0  0  0  0  0  0  0  0  0  0  0
    2.5040    2.3970   -9.3170 H   0  0  0  0  0  0  0  0  0  0  0  0
    1.8530   -1.9130   -2.3660 H   0  0  0  0  0  0  0  0  0  0  0  0
  1  2  1  0  0  0  0
  1  6  1  0  0  0  0
  1  7  2  0  0  0  0
  1  8  2  0  0  0  0
  2 13  1  0  0  0  0
  2 14  1  0  0  0  0
  3  4  2  0  0  0  0
  3  5  1  0  0  0  0
  3 26  1  0  0  0  0
  4  9  1  0  0  0  0
  4 11  1  0  0  0  0
  5 15  2  0  0  0  0
  5 21  1  0  0  0  0
  6 17  2  0  0  0  0
  6 18  1  0  0  0  0
  9 19  1  0  0  0  0
 10 12  1  0  0  0  0
 10 16  2  0  0  0  0
 10 19  1  0  0  0  0
 11 28  2  0  0  0  0
 12 20  1  0  0  0  0
 12 31  1  0  0  0  0
 13 24  1  0  0  0  0
 13 32  1  0  0  0  0
 13 33  1  0  0  0  0
 14 25  1  0  0  0  0
 14 34  1  0  0  0  0
 14 35  1  0  0  0  0
 17 22  1  0  0  0  0
 17 36  1  0  0  0  0
 18 23  2  0  0  0  0
 18 37  1  0  0  0  0
 19 38  1  0  0  0  0
 19 39  1  0  0  0  0
 20 22  2  0  0  0  0
 20 23  1  0  0  0  0
 22 40  1  0  0  0  0
 23 41  1  0  0  0  0
 24 27  1  0  0  0  0
 24 42  1  0  0  0  0
 24 43  1  0  0  0  0
 25 27  1  0  0  0  0
 25 44  1  0  0  0  0
 25 45  1  0  0  0  0
 26 30  2  0  0  0  0
 26 46  1  0  0  0  0
 27 29  1  0  0  0  0
 27 47  1  0  0  0  0
 28 30  1  0  0  0  0
 28 48  1  0  0  0  0
 29 49  1  0  0  0  0
 29 50  1  0  0  0  0
 29 51  1  0  0  0  0
 30 52  1  0  0  0  0
M  CHG  1  21  -1
M  END
>  <$CLUSTER>
214

>  <INDEX>
139140

$$$$
Chembridge 7928511
  MOE2020           3D

 39 41  0  0  0  0  0  0  0  0999 V2000
    0.6200    0.5190   -0.1550 N   0  0  0  0  0  0  0  0  0  0  0  0
    1.6810    0.3760   -1.0410 C   0  0  0  0  0  0  0  0  0  0  0  0
    2.3120    1.5250   -1.1460 N   0  0  0  0  0  0  0  0  0  0  0  0
    0.5720    1.8320    0.1900 N   0  0  0  0  0  0  0  0  0  0  0  0
    1.6180    2.4110   -0.3760 N   0  0  0  0  0  0  0  0  0  0  0  0
   -0.3030   -0.4160    0.3940 C   0  0  0  0  0  0  0  0  0  0  0  0
    2.0020   -1.0250   -2.0110 S   0  0  0  0  0  0  0  0  0  0  0  0
    4.7110   -0.4280   -2.0030 C   0  0  0  0  0  0  0  0  0  0  0  0
    4.9640    0.8130   -1.5240 N   0  0  0  0  0  0  0  0  0  0  0  0
   -1.5990   -0.0170    0.7970 C   0  0  0  0  0  0  0  0  0  0  0  0
    5.3630   -1.4130   -1.6760 O   0  0  0  0  0  0  0  0  0  0  0  0
    3.4840   -0.5130   -2.9070 C   0  0  0  0  0  0  0  0  0  0  0  0
    5.9680    1.3110   -0.6780 C   0  0  0  0  0  0  0  0  0  0  0  0
    7.9350    2.3850    1.0170 C   0  0  0  0  0  0  0  0  0  0  0  0
    9.2400    3.0670    2.1340 Br  0  0  0  0  0  0  0  0  0  0  0  0
    0.1030   -1.7440    0.5930 C   0  0  0  0  0  0  0  0  0  0  0  0
    6.9440    0.4840   -0.1140 C   0  0  0  0  0  0  0  0  0  0  0  0
    5.9900    2.6820   -0.3830 C   0  0  0  0  0  0  0  0  0  0  0  0
   -1.9770    1.2790    0.5540 O   0  0  0  0  0  0  0  0  0  0  0  0
    7.9220    1.0220    0.7300 C   0  0  0  0  0  0  0  0  0  0  0  0
    6.9670    3.2160    0.4600 C   0  0  0  0  0  0  0  0  0  0  0  0
   -2.4570   -0.9700    1.3690 C   0  0  0  0  0  0  0  0  0  0  0  0
   -3.2480    1.7070    1.0270 C   0  0  0  0  0  0  0  0  0  0  0  0
   -0.7660   -2.6760    1.1630 C   0  0  0  0  0  0  0  0  0  0  0  0
   -2.0430   -2.2900    1.5480 C   0  0  0  0  0  0  0  0  0  0  0  0
    4.3060    1.5130   -1.8340 H   0  0  0  0  0  0  0  0  0  0  0  0
    3.3050    0.4680   -3.3470 H   0  0  0  0  0  0  0  0  0  0  0  0
    3.6820   -1.2360   -3.6980 H   0  0  0  0  0  0  0  0  0  0  0  0
    1.0980   -2.0480    0.3020 H   0  0  0  0  0  0  0  0  0  0  0  0
    6.9430   -0.5740   -0.3310 H   0  0  0  0  0  0  0  0  0  0  0  0
    5.2430    3.3320   -0.8130 H   0  0  0  0  0  0  0  0  0  0  0  0
    8.6720    0.3760    1.1620 H   0  0  0  0  0  0  0  0  0  0  0  0
    6.9720    4.2730    0.6800 H   0  0  0  0  0  0  0  0  0  0  0  0
   -3.4510   -0.6770    1.6740 H   0  0  0  0  0  0  0  0  0  0  0  0
   -3.4030    2.7520    0.7590 H   0  0  0  0  0  0  0  0  0  0  0  0
   -3.2870    1.6010    2.1110 H   0  0  0  0  0  0  0  0  0  0  0  0
   -4.0290    1.0960    0.5740 H   0  0  0  0  0  0  0  0  0  0  0  0
   -0.4450   -3.6970    1.3050 H   0  0  0  0  0  0  0  0  0  0  0  0
   -2.7160   -3.0120    1.9860 H   0  0  0  0  0  0  0  0  0  0  0  0
  1  2  1  0  0  0  0
  1  4  1  0  0  0  0
  1  6  1  0  0  0  0
  2  3  2  0  0  0  0
  2  7  1  0  0  0  0
  3  5  1  0  0  0  0
  4  5  2  0  0  0  0
  6 10  2  0  0  0  0
  6 16  1  0  0  0  0
  7 12  1  0  0  0  0
  8  9  1  0  0  0  0
  8 11  2  0  0  0  0
  8 12  1  0  0  0  0
  9 13  1  0  0  0  0
  9 26  1  0  0  0  0
 10 19  1  0  0  0  0
 10 22  1  0  0  0  0
 12 27  1  0  0  0  0
 12 28  1  0  0  0  0
 13 17  2  0  0  0  0
 13 18  1  0  0  0  0
 14 15  1  0  0  0  0
 14 20  2  0  0  0  0
 14 21  1  0  0  0  0
 16 24  2  0  0  0  0
 16 29  1  0  0  0  0
 17 20  1  0  0  0  0
 17 30  1  0  0  0  0
 18 21  2  0  0  0  0
 18 31  1  0  0  0  0
 19 23  1  0  0  0  0
 20 32  1  0  0  0  0
 21 33  1  0  0  0  0
 22 25  2  0  0  0  0
 22 34  1  0  0  0  0
 23 35  1  0  0  0  0
 23 36  1  0  0  0  0
 23 37  1  0  0  0  0
 24 25  1  0  0  0  0
 24 38  1  0  0  0  0
 25 39  1  0  0  0  0
M  END
>  <$CLUSTER>
215

>  <INDEX>
91841

$$$$
Asinex ASN 04479736
  MOE2020           3D

 51 54  0  0  0  0  0  0  0  0999 V2000
   -1.3140    0.4740    0.3810 S   0  0  0  0  0  0  0  0  0  0  0  0
    0.1650   -0.1170   -0.2130 N   0  0  0  0  0  0  0  0  0  0  0  0
   -1.2430   -1.1090    6.1740 N   0  0  0  0  0  0  0  0  0  0  0  0
   -1.6980   -2.2710    6.6940 N   0  0  0  0  0  0  0  0  0  0  0  0
   -1.5010   -2.2060    8.0010 N   0  0  0  0  0  0  0  0  0  0  0  0
   -0.9250   -1.0190    8.3520 N   0  0  0  0  0  0  0  0  0  0  0  0
   -1.2780   -0.0280    2.0990 C   0  0  0  0  0  0  0  0  0  0  0  0
   -0.7700   -0.3560    7.2300 C   0  0  0  0  0  0  0  0  0  0  0  0
   -1.2760   -0.7830    4.7650 C   0  0  0  0  0  0  0  0  0  0  0  0
    0.2440   -1.5410   -0.5970 C   0  0  0  0  0  0  0  0  0  0  0  0
   -1.7890   -1.6480    3.7970 C   0  0  0  0  0  0  0  0  0  0  0  0
   -1.7930   -1.2710    2.4530 C   0  0  0  0  0  0  0  0  0  0  0  0
   -1.2790    1.9250    0.3260 O   0  0  0  0  0  0  0  0  0  0  0  0
   -2.3890   -0.2470   -0.2790 O   0  0  0  0  0  0  0  0  0  0  0  0
   -0.0580   -1.6970   -2.0790 C   0  0  0  0  0  0  0  0  0  0  0  0
   -0.7670    0.4630    4.3940 C   0  0  0  0  0  0  0  0  0  0  0  0
    1.0080   -1.5990   -2.9080 O   0  0  0  0  0  0  0  0  0  0  0  0
   -0.7680    0.8470    3.0520 C   0  0  0  0  0  0  0  0  0  0  0  0
    1.4230    0.5810    0.1670 C   0  0  0  0  0  0  0  0  0  0  0  0
   -1.2120   -1.9320   -2.7660 C   0  0  0  0  0  0  0  0  0  0  0  0
    0.5200   -1.7750   -4.1640 C   0  0  0  0  0  0  0  0  0  0  0  0
   -0.8390   -1.9830   -4.1300 C   0  0  0  0  0  0  0  0  0  0  0  0
   -2.3720   -3.0310    4.0830 C   0  0  0  0  0  0  0  0  0  0  0  0
    2.2880    0.7890   -1.0740 C   0  0  0  0  0  0  0  0  0  0  0  0
    2.1960   -0.1390    1.2690 C   0  0  0  0  0  0  0  0  0  0  0  0
    3.6100    1.4770   -0.7370 C   0  0  0  0  0  0  0  0  0  0  0  0
    3.4900    0.5370    1.6040 C   0  0  0  0  0  0  0  0  0  0  0  0
    4.3600    0.7380    0.3670 C   0  0  0  0  0  0  0  0  0  0  0  0
   -0.3380    0.6300    7.1460 H   0  0  0  0  0  0  0  0  0  0  0  0
   -0.4820   -2.1120   -0.0180 H   0  0  0  0  0  0  0  0  0  0  0  0
    1.2470   -1.9150   -0.3920 H   0  0  0  0  0  0  0  0  0  0  0  0
   -2.1900   -1.9340    1.6990 H   0  0  0  0  0  0  0  0  0  0  0  0
   -0.3720    1.1300    5.1460 H   0  0  0  0  0  0  0  0  0  0  0  0
   -0.3780    1.8100    2.7580 H   0  0  0  0  0  0  0  0  0  0  0  0
    1.1490    1.5500    0.5840 H   0  0  0  0  0  0  0  0  0  0  0  0
   -2.2030   -2.0540   -2.3550 H   0  0  0  0  0  0  0  0  0  0  0  0
    1.1170   -1.7540   -5.0640 H   0  0  0  0  0  0  0  0  0  0  0  0
   -1.4910   -2.1510   -4.9750 H   0  0  0  0  0  0  0  0  0  0  0  0
   -2.3240   -3.2310    5.1530 H   0  0  0  0  0  0  0  0  0  0  0  0
   -1.7970   -3.7860    3.5460 H   0  0  0  0  0  0  0  0  0  0  0  0
   -3.4110   -3.0630    3.7540 H   0  0  0  0  0  0  0  0  0  0  0  0
    1.7410    1.4070   -1.7860 H   0  0  0  0  0  0  0  0  0  0  0  0
    2.5000   -0.1810   -1.5230 H   0  0  0  0  0  0  0  0  0  0  0  0
    2.4090   -1.1560    0.9380 H   0  0  0  0  0  0  0  0  0  0  0  0
    1.5770   -0.1710    2.1660 H   0  0  0  0  0  0  0  0  0  0  0  0
    3.4050    2.4950   -0.4060 H   0  0  0  0  0  0  0  0  0  0  0  0
    4.2330    1.5040   -1.6310 H   0  0  0  0  0  0  0  0  0  0  0  0
    4.0340   -0.0770    2.3220 H   0  0  0  0  0  0  0  0  0  0  0  0
    3.2760    1.5100    2.0470 H   0  0  0  0  0  0  0  0  0  0  0  0
    5.2400    1.3180    0.6450 H   0  0  0  0  0  0  0  0  0  0  0  0
    4.6700   -0.2370   -0.0090 H   0  0  0  0  0  0  0  0  0  0  0  0
  1  2  1  0  0  0  0
  1  7  1  0  0  0  0
  1 13  2  0  0  0  0
  1 14  2  0  0  0  0
  2 10  1  0  0  0  0
  2 19  1  0  0  0  0
  3  4  1  0  0  0  0
  3  8  1  0  0  0  0
  3  9  1  0  0  0  0
  4  5  2  0  0  0  0
  5  6  1  0  0  0  0
  6  8  2  0  0  0  0
  7 12  2  0  0  0  0
  7 18  1  0  0  0  0
  8 29  1  0  0  0  0
  9 11  2  0  0  0  0
  9 16  1  0  0  0  0
 10 15  1  0  0  0  0
 10 30  1  0  0  0  0
 10 31  1  0  0  0  0
 11 12  1  0  0  0  0
 11 23  1  0  0  0  0
 12 32  1  0  0  0  0
 15 17  1  0  0  0  0
 15 20  2  0  0  0  0
 16 18  2  0  0  0  0
 16 33  1  0  0  0  0
 17 21  1  0  0  0  0
 18 34  1  0  0  0  0
 19 24  1  0  0  0  0
 19 25  1  0  0  0  0
 19 35  1  0  0  0  0
 20 22  1  0  0  0  0
 20 36  1  0  0  0  0
 21 22  2  0  0  0  0
 21 37  1  0  0  0  0
 22 38  1  0  0  0  0
 23 39  1  0  0  0  0
 23 40  1  0  0  0  0
 23 41  1  0  0  0  0
 24 26  1  0  0  0  0
 24 42  1  0  0  0  0
 24 43  1  0  0  0  0
 25 27  1  0  0  0  0
 25 44  1  0  0  0  0
 25 45  1  0  0  0  0
 26 28  1  0  0  0  0
 26 46  1  0  0  0  0
 26 47  1  0  0  0  0
 27 28  1  0  0  0  0
 27 48  1  0  0  0  0
 27 49  1  0  0  0  0
 28 50  1  0  0  0  0
 28 51  1  0  0  0  0
M  END
>  <$CLUSTER>
216

>  <INDEX>
140148

$$$$
Life Chemicals F0579-0521
  MOE2020           3D

 47 50  0  0  0  0  0  0  0  0999 V2000
    0.5020    0.2990   -1.9970 N   0  0  0  0  0  0  0  0  0  0  0  0
   -0.7560    0.8240   -1.8970 C   0  0  0  0  0  0  0  0  0  0  0  0
    1.1650   -0.2500   -0.9310 C   0  0  0  0  0  0  0  0  0  0  0  0
    0.3860   -0.2130    0.3120 C   0  0  0  0  0  0  0  0  0  0  0  0
   -1.4500    0.8620   -0.8020 N   0  0  0  0  0  0  0  0  0  0  0  0
   -0.8340    0.3250    0.3020 C   0  0  0  0  0  0  0  0  0  0  0  0
   -1.5240    1.7270   -3.2320 S   0  0  0  0  0  0  0  0  0  0  0  0
    0.9380   -0.8130    1.8230 S   0  0  0  0  0  0  0  0  0  0  0  0
    1.1450    0.1800   -3.3380 C   0  0  0  0  0  0  0  0  0  0  0  0
    2.2960   -0.7240   -1.0080 O   0  0  0  0  0  0  0  0  0  0  0  0
   -3.8390    1.9540   -1.7110 C   0  0  0  0  0  0  0  0  0  0  0  0
   -3.8030    1.1800   -0.6020 N   0  0  0  0  0  0  0  0  0  0  0  0
   -1.5140    0.3170    1.6390 C   0  0  0  0  0  0  0  0  0  0  0  0
   -4.2230    3.1190   -1.6980 O   0  0  0  0  0  0  0  0  0  0  0  0
   -3.2570    1.2950   -2.9560 C   0  0  0  0  0  0  0  0  0  0  0  0
    0.5030   -0.4200   -4.4330 C   0  0  0  0  0  0  0  0  0  0  0  0
    2.4660    0.6300   -3.4940 C   0  0  0  0  0  0  0  0  0  0  0  0
   -4.2210    1.4040    0.7180 C   0  0  0  0  0  0  0  0  0  0  0  0
   -0.7320   -0.6270    2.5590 C   0  0  0  0  0  0  0  0  0  0  0  0
    2.4600   -0.0660   -5.8080 C   0  0  0  0  0  0  0  0  0  0  0  0
    1.1560   -0.5370   -5.6620 C   0  0  0  0  0  0  0  0  0  0  0  0
    3.1150    0.5130   -4.7250 C   0  0  0  0  0  0  0  0  0  0  0  0
   -5.0210    1.7760    3.3870 C   0  0  0  0  0  0  0  0  0  0  0  0
    3.0060   -0.2080   -7.0170 F   0  0  0  0  0  0  0  0  0  0  0  0
   -4.7630    2.6250    1.1320 C   0  0  0  0  0  0  0  0  0  0  0  0
   -4.0850    0.3720    1.6600 C   0  0  0  0  0  0  0  0  0  0  0  0
   -4.4830    0.5570    2.9860 C   0  0  0  0  0  0  0  0  0  0  0  0
   -5.1600    2.8080    2.4610 C   0  0  0  0  0  0  0  0  0  0  0  0
   -5.4460    1.9760    4.8040 C   0  0  0  0  0  0  0  0  0  0  0  0
   -3.3980    0.2670   -0.7530 H   0  0  0  0  0  0  0  0  0  0  0  0
   -2.5390   -0.0360    1.5310 H   0  0  0  0  0  0  0  0  0  0  0  0
   -1.5190    1.3230    2.0580 H   0  0  0  0  0  0  0  0  0  0  0  0
   -3.3330    0.2130   -2.8450 H   0  0  0  0  0  0  0  0  0  0  0  0
   -3.8370    1.6130   -3.8220 H   0  0  0  0  0  0  0  0  0  0  0  0
   -0.5040   -0.7940   -4.3240 H   0  0  0  0  0  0  0  0  0  0  0  0
    2.9840    1.0700   -2.6550 H   0  0  0  0  0  0  0  0  0  0  0  0
   -0.6570   -0.2000    3.5590 H   0  0  0  0  0  0  0  0  0  0  0  0
   -1.2290   -1.5960    2.6140 H   0  0  0  0  0  0  0  0  0  0  0  0
    0.6500   -0.9930   -6.5000 H   0  0  0  0  0  0  0  0  0  0  0  0
    4.1270    0.8730   -4.8370 H   0  0  0  0  0  0  0  0  0  0  0  0
   -4.8760    3.4310    0.4220 H   0  0  0  0  0  0  0  0  0  0  0  0
   -3.6680   -0.5760    1.3560 H   0  0  0  0  0  0  0  0  0  0  0  0
   -4.3730   -0.2460    3.7000 H   0  0  0  0  0  0  0  0  0  0  0  0
   -5.5770    3.7550    2.7710 H   0  0  0  0  0  0  0  0  0  0  0  0
   -5.2600    1.0640    5.3710 H   0  0  0  0  0  0  0  0  0  0  0  0
   -6.5100    2.2130    4.8340 H   0  0  0  0  0  0  0  0  0  0  0  0
   -4.8780    2.7970    5.2410 H   0  0  0  0  0  0  0  0  0  0  0  0
  1  2  1  0  0  0  0
  1  3  1  0  0  0  0
  1  9  1  0  0  0  0
  2  5  2  0  0  0  0
  2  7  1  0  0  0  0
  3  4  1  0  0  0  0
  3 10  2  0  0  0  0
  4  6  2  0  0  0  0
  4  8  1  0  0  0  0
  5  6  1  0  0  0  0
  6 13  1  0  0  0  0
  7 15  1  0  0  0  0
  8 19  1  0  0  0  0
  9 16  2  0  0  0  0
  9 17  1  0  0  0  0
 11 12  1  0  0  0  0
 11 14  2  0  0  0  0
 11 15  1  0  0  0  0
 12 18  1  0  0  0  0
 12 30  1  0  0  0  0
 13 19  1  0  0  0  0
 13 31  1  0  0  0  0
 13 32  1  0  0  0  0
 15 33  1  0  0  0  0
 15 34  1  0  0  0  0
 16 21  1  0  0  0  0
 16 35  1  0  0  0  0
 17 22  2  0  0  0  0
 17 36  1  0  0  0  0
 18 25  1  0  0  0  0
 18 26  2  0  0  0  0
 19 37  1  0  0  0  0
 19 38  1  0  0  0  0
 20 21  2  0  0  0  0
 20 22  1  0  0  0  0
 20 24  1  0  0  0  0
 21 39  1  0  0  0  0
 22 40  1  0  0  0  0
 23 27  2  0  0  0  0
 23 28  1  0  0  0  0
 23 29  1  0  0  0  0
 25 28  2  0  0  0  0
 25 41  1  0  0  0  0
 26 27  1  0  0  0  0
 26 42  1  0  0  0  0
 27 43  1  0  0  0  0
 28 44  1  0  0  0  0
 29 45  1  0  0  0  0
 29 46  1  0  0  0  0
 29 47  1  0  0  0  0
M  END
>  <$CLUSTER>
217

>  <INDEX>
275208

$$$$
Specs AF-399/40827552
  MOE2020           3D

 48 52  0  0  0  0  0  0  0  0999 V2000
   -0.4680   -0.5550    0.3540 C   0  0  0  0  0  0  0  0  0  0  0  0
    0.6820    0.1020   -0.1800 C   0  0  0  0  0  0  0  0  0  0  0  0
   -1.6500    0.1820    0.3470 C   0  0  0  0  0  0  0  0  0  0  0  0
   -2.9780   -0.6060    1.0450 S   0  0  0  0  0  0  0  0  0  0  0  0
   -0.7460   -1.8810    0.8830 C   0  0  0  0  0  0  0  0  0  0  0  0
    0.4780    1.3350   -0.7510 N   0  0  0  0  0  0  0  0  0  0  0  0
   -1.8450    1.4150   -0.1450 N   0  0  0  0  0  0  0  0  0  0  0  0
   -2.0610   -2.0090    1.3040 C   0  0  0  0  0  0  0  0  0  0  0  0
    1.9760   -0.3920   -0.1660 N   0  0  0  0  0  0  0  0  0  0  0  0
    5.4260   -2.5240   -0.5080 C   0  0  0  0  0  0  0  0  0  0  0  0
    4.1570   -2.1680   -0.5090 N   0  0  0  0  0  0  0  0  0  0  0  0
   -0.7350    1.9080   -0.6960 C   0  0  0  0  0  0  0  0  0  0  0  0
    5.9650   -3.0370    0.6270 N   0  0  0  0  0  0  0  0  0  0  0  0
    6.1560   -2.3660   -1.6410 N   0  0  0  0  0  0  0  0  0  0  0  0
    2.5830   -0.9420    1.0280 C   0  0  0  0  0  0  0  0  0  0  0  0
    2.7840   -0.2360   -1.3620 C   0  0  0  0  0  0  0  0  0  0  0  0
    3.4520   -1.6040   -1.6610 C   0  0  0  0  0  0  0  0  0  0  0  0
    3.2590   -2.2840    0.6400 C   0  0  0  0  0  0  0  0  0  0  0  0
    0.1940   -3.0500    0.9790 C   0  0  0  0  0  0  0  0  0  0  0  0
   -2.6900   -3.2500    1.8620 C   0  0  0  0  0  0  0  0  0  0  0  0
    8.0710   -3.2640   -0.5050 C   0  0  0  0  0  0  0  0  0  0  0  0
    7.4540   -2.7380   -1.6120 C   0  0  0  0  0  0  0  0  0  0  0  0
    7.2680   -3.3930    0.6010 C   0  0  0  0  0  0  0  0  0  0  0  0
   -0.8290    3.2850   -1.3490 C   0  0  0  0  0  0  0  0  0  0  0  0
   -0.5490   -4.3860    1.1290 C   0  0  0  0  0  0  0  0  0  0  0  0
   -1.6270   -4.2970    2.2150 C   0  0  0  0  0  0  0  0  0  0  0  0
    1.8190   -1.1170    1.7860 H   0  0  0  0  0  0  0  0  0  0  0  0
    3.3290   -0.2500    1.4170 H   0  0  0  0  0  0  0  0  0  0  0  0
    3.5490    0.5230   -1.1970 H   0  0  0  0  0  0  0  0  0  0  0  0
    2.1530    0.0600   -2.2000 H   0  0  0  0  0  0  0  0  0  0  0  0
    2.6780   -2.3060   -1.9710 H   0  0  0  0  0  0  0  0  0  0  0  0
    4.1670   -1.4700   -2.4730 H   0  0  0  0  0  0  0  0  0  0  0  0
    3.8340   -2.6410    1.4940 H   0  0  0  0  0  0  0  0  0  0  0  0
    2.4800   -3.0070    0.3990 H   0  0  0  0  0  0  0  0  0  0  0  0
    0.8410   -2.9090    1.8450 H   0  0  0  0  0  0  0  0  0  0  0  0
    0.8010   -3.0860    0.0750 H   0  0  0  0  0  0  0  0  0  0  0  0
   -3.3700   -3.6690    1.1200 H   0  0  0  0  0  0  0  0  0  0  0  0
   -3.2480   -2.9920    2.7620 H   0  0  0  0  0  0  0  0  0  0  0  0
    9.1110   -3.5550   -0.5040 H   0  0  0  0  0  0  0  0  0  0  0  0
    8.0400   -2.6140   -2.5110 H   0  0  0  0  0  0  0  0  0  0  0  0
    7.7020   -3.8020    1.5010 H   0  0  0  0  0  0  0  0  0  0  0  0
    0.1440    3.5620   -1.7550 H   0  0  0  0  0  0  0  0  0  0  0  0
   -1.1340    4.0200   -0.6040 H   0  0  0  0  0  0  0  0  0  0  0  0
   -1.5640    3.2560   -2.1540 H   0  0  0  0  0  0  0  0  0  0  0  0
    0.1660   -5.1630    1.4000 H   0  0  0  0  0  0  0  0  0  0  0  0
   -1.0200   -4.6400    0.1790 H   0  0  0  0  0  0  0  0  0  0  0  0
   -2.1080   -5.2700    2.3180 H   0  0  0  0  0  0  0  0  0  0  0  0
   -1.1570   -4.0220    3.1590 H   0  0  0  0  0  0  0  0  0  0  0  0
  1  2  2  0  0  0  0
  1  3  1  0  0  0  0
  1  5  1  0  0  0  0
  2  6  1  0  0  0  0
  2  9  1  0  0  0  0
  3  4  1  0  0  0  0
  3  7  2  0  0  0  0
  4  8  1  0  0  0  0
  5  8  2  0  0  0  0
  5 19  1  0  0  0  0
  6 12  2  0  0  0  0
  7 12  1  0  0  0  0
  8 20  1  0  0  0  0
  9 15  1  0  0  0  0
  9 16  1  0  0  0  0
 10 11  1  0  0  0  0
 10 13  1  0  0  0  0
 10 14  2  0  0  0  0
 11 17  1  0  0  0  0
 11 18  1  0  0  0  0
 12 24  1  0  0  0  0
 13 23  2  0  0  0  0
 14 22  1  0  0  0  0
 15 18  1  0  0  0  0
 15 27  1  0  0  0  0
 15 28  1  0  0  0  0
 16 17  1  0  0  0  0
 16 29  1  0  0  0  0
 16 30  1  0  0  0  0
 17 31  1  0  0  0  0
 17 32  1  0  0  0  0
 18 33  1  0  0  0  0
 18 34  1  0  0  0  0
 19 25  1  0  0  0  0
 19 35  1  0  0  0  0
 19 36  1  0  0  0  0
 20 26  1  0  0  0  0
 20 37  1  0  0  0  0
 20 38  1  0  0  0  0
 21 22  2  0  0  0  0
 21 23  1  0  0  0  0
 21 39  1  0  0  0  0
 22 40  1  0  0  0  0
 23 41  1  0  0  0  0
 24 42  1  0  0  0  0
 24 43  1  0  0  0  0
 24 44  1  0  0  0  0
 25 26  1  0  0  0  0
 25 45  1  0  0  0  0
 25 46  1  0  0  0  0
 26 47  1  0  0  0  0
 26 48  1  0  0  0  0
M  END
>  <$CLUSTER>
218

>  <INDEX>
492044

$$$$
InterBioScreen STOCK1S-87980
  MOE2020           3D

 43 44  0  0  0  0  0  0  0  0999 V2000
    0.0430   -2.1200    0.8890 S   0  0  0  0  0  0  0  0  0  0  0  0
   -0.6590    0.0670   -0.4920 C   0  0  0  0  0  0  0  0  0  0  0  0
   -0.3600   -1.3280   -0.5540 N   0  0  0  0  0  0  0  0  0  0  0  0
    0.3320    1.0530   -0.4470 C   0  0  0  0  0  0  0  0  0  0  0  0
   -0.0320    2.3970   -0.2640 C   0  0  0  0  0  0  0  0  0  0  0  0
   -2.0060    0.4380   -0.3840 C   0  0  0  0  0  0  0  0  0  0  0  0
   -1.5490   -2.2990    1.6890 C   0  0  0  0  0  0  0  0  0  0  0  0
   -1.3750    2.7550   -0.1490 C   0  0  0  0  0  0  0  0  0  0  0  0
   -2.3610    1.7760   -0.2170 C   0  0  0  0  0  0  0  0  0  0  0  0
    0.5190   -3.4450    0.5260 O   0  0  0  0  0  0  0  0  0  0  0  0
    0.8840   -1.2480    1.6930 O   0  0  0  0  0  0  0  0  0  0  0  0
    1.7720    0.7790   -0.6370 C   0  0  0  0  0  0  0  0  0  0  0  0
    2.6040    1.4490   -0.0240 O   0  0  0  0  0  0  0  0  0  0  0  0
   -1.9770   -1.2900    2.5520 C   0  0  0  0  0  0  0  0  0  0  0  0
   -2.2980   -3.4460    1.4820 C   0  0  0  0  0  0  0  0  0  0  0  0
   -1.8150    4.0500    0.0180 O   0  0  0  0  0  0  0  0  0  0  0  0
   -3.6620    2.2180   -0.0920 O   0  0  0  0  0  0  0  0  0  0  0  0
   -3.5210   -3.5850    2.1380 C   0  0  0  0  0  0  0  0  0  0  0  0
   -3.2020   -1.4370    3.2060 C   0  0  0  0  0  0  0  0  0  0  0  0
   -3.9710   -2.5820    2.9980 C   0  0  0  0  0  0  0  0  0  0  0  0
    2.1870   -0.2750   -1.6290 C   0  0  0  0  0  0  0  0  0  0  0  0
   -5.2830   -2.7330    3.7010 C   0  0  0  0  0  0  0  0  0  0  0  0
   -4.6980    1.2440   -0.1470 C   0  0  0  0  0  0  0  0  0  0  0  0
   -0.8320    5.0760    0.0820 C   0  0  0  0  0  0  0  0  0  0  0  0
   -0.3880   -1.8280   -1.4310 H   0  0  0  0  0  0  0  0  0  0  0  0
    0.7330    3.1580   -0.2120 H   0  0  0  0  0  0  0  0  0  0  0  0
   -2.7750   -0.3190   -0.4300 H   0  0  0  0  0  0  0  0  0  0  0  0
   -1.3710   -0.4100    2.7120 H   0  0  0  0  0  0  0  0  0  0  0  0
   -1.9400   -4.2220    0.8220 H   0  0  0  0  0  0  0  0  0  0  0  0
   -4.1200   -4.4700    1.9800 H   0  0  0  0  0  0  0  0  0  0  0  0
   -3.5540   -0.6640    3.8730 H   0  0  0  0  0  0  0  0  0  0  0  0
    1.2990   -0.7440   -2.0530 H   0  0  0  0  0  0  0  0  0  0  0  0
    2.7910   -1.0300   -1.1260 H   0  0  0  0  0  0  0  0  0  0  0  0
    2.7710    0.1860   -2.4260 H   0  0  0  0  0  0  0  0  0  0  0  0
   -5.7390   -3.6820    3.4190 H   0  0  0  0  0  0  0  0  0  0  0  0
   -5.9440   -1.9140    3.4170 H   0  0  0  0  0  0  0  0  0  0  0  0
   -5.1220   -2.7130    4.7790 H   0  0  0  0  0  0  0  0  0  0  0  0
   -5.6650    1.7350   -0.0350 H   0  0  0  0  0  0  0  0  0  0  0  0
   -4.5620    0.5230    0.6590 H   0  0  0  0  0  0  0  0  0  0  0  0
   -4.6610    0.7280   -1.1070 H   0  0  0  0  0  0  0  0  0  0  0  0
   -1.3220    6.0410    0.2150 H   0  0  0  0  0  0  0  0  0  0  0  0
   -0.2560    5.0850   -0.8430 H   0  0  0  0  0  0  0  0  0  0  0  0
   -0.1650    4.8880    0.9240 H   0  0  0  0  0  0  0  0  0  0  0  0
  1  3  1  0  0  0  0
  1  7  1  0  0  0  0
  1 10  2  0  0  0  0
  1 11  2  0  0  0  0
  2  3  1  0  0  0  0
  2  4  2  0  0  0  0
  2  6  1  0  0  0  0
  3 25  1  0  0  0  0
  4  5  1  0  0  0  0
  4 12  1  0  0  0  0
  5  8  2  0  0  0  0
  5 26  1  0  0  0  0
  6  9  2  0  0  0  0
  6 27  1  0  0  0  0
  7 14  1  0  0  0  0
  7 15  2  0  0  0  0
  8  9  1  0  0  0  0
  8 16  1  0  0  0  0
  9 17  1  0  0  0  0
 12 13  2  0  0  0  0
 12 21  1  0  0  0  0
 14 19  2  0  0  0  0
 14 28  1  0  0  0  0
 15 18  1  0  0  0  0
 15 29  1  0  0  0  0
 16 24  1  0  0  0  0
 17 23  1  0  0  0  0
 18 20  2  0  0  0  0
 18 30  1  0  0  0  0
 19 20  1  0  0  0  0
 19 31  1  0  0  0  0
 20 22  1  0  0  0  0
 21 32  1  0  0  0  0
 21 33  1  0  0  0  0
 21 34  1  0  0  0  0
 22 35  1  0  0  0  0
 22 36  1  0  0  0  0
 22 37  1  0  0  0  0
 23 38  1  0  0  0  0
 23 39  1  0  0  0  0
 23 40  1  0  0  0  0
 24 41  1  0  0  0  0
 24 42  1  0  0  0  0
 24 43  1  0  0  0  0
M  END
>  <$CLUSTER>
219

>  <INDEX>
334196

$$$$
Asinex ASN 05346210
  MOE2020           3D

 56 59  0  0  1  0  0  0  0  0999 V2000
    0.3540   -0.1260    0.4020 C   0  0  0  0  0  0  0  0  0  0  0  0
   -0.0470   -0.4570   -0.8660 N   0  0  0  0  0  0  0  0  0  0  0  0
    0.4150   -2.2650    0.1380 N   0  0  0  0  0  0  0  0  0  0  0  0
   -0.0120   -1.7910   -1.0230 N   0  0  0  0  0  0  0  0  0  0  0  0
    0.6480   -1.2480    1.0320 N   0  0  0  0  0  0  0  0  0  0  0  0
    0.4390    1.2570    0.9440 C   0  0  3  0  0  0  0  0  0  0  0  0
    0.1020    1.3040    2.4000 N   0  3  0  0  0  0  0  0  0  0  0  0
   -0.4650    0.3940   -1.9550 C   0  0  0  0  0  0  0  0  0  0  0  0
    1.8380    1.8350    0.7730 C   0  0  0  0  0  0  0  0  0  0  0  0
    1.0090    0.6180    3.3880 C   0  0  0  0  0  0  0  0  0  0  0  0
   -0.3190    2.6650    2.9200 C   0  0  0  0  0  0  0  0  0  0  0  0
    1.9950    3.1770    0.2690 C   0  0  0  0  0  0  0  0  0  0  0  0
    3.0270    1.1660    1.1130 C   0  0  0  0  0  0  0  0  0  0  0  0
   -1.9670    0.6180   -1.9670 C   0  0  0  0  0  0  0  0  0  0  0  0
   -4.7460    1.0160   -1.9790 C   0  0  0  0  0  0  0  0  0  0  0  0
    4.3990    3.0390    0.4470 C   0  0  0  0  0  0  0  0  0  0  0  0
    3.2540    3.7550    0.1080 C   0  0  0  0  0  0  0  0  0  0  0  0
    4.2850    1.7470    0.9500 C   0  0  0  0  0  0  0  0  0  0  0  0
    0.4950    0.5590    4.7610 C   0  0  0  0  0  0  0  0  0  0  0  0
   -0.8590    2.6380    4.3140 C   0  0  0  0  0  0  0  0  0  0  0  0
   -6.0730    1.1320   -2.0310 F   0  0  0  0  0  0  0  0  0  0  0  0
   -2.5200    1.7880   -1.4250 C   0  0  0  0  0  0  0  0  0  0  0  0
   -2.8250   -0.3580   -2.4970 C   0  0  0  0  0  0  0  0  0  0  0  0
   -3.9040    1.9870   -1.4350 C   0  0  0  0  0  0  0  0  0  0  0  0
   -4.2070   -0.1570   -2.5070 C   0  0  0  0  0  0  0  0  0  0  0  0
    0.1140    1.9510    5.2820 C   0  0  0  0  0  0  0  0  0  0  0  0
    5.5710    3.7190    0.2490 O   0  0  0  0  0  0  0  0  0  0  0  0
    6.7740    3.0360    0.5810 C   0  0  0  0  0  0  0  0  0  0  0  0
   -0.4840    1.8640    6.6860 C   0  0  0  0  0  0  0  0  0  0  0  0
   -0.2830    1.8460    0.3790 H   0  0  0  0  0  0  0  0  0  0  0  0
   -0.7070    0.7000    2.3630 H   0  0  0  0  0  0  0  0  0  0  0  0
   -0.1720   -0.0720   -2.8960 H   0  0  0  0  0  0  0  0  0  0  0  0
    0.0330    1.3590   -1.8570 H   0  0  0  0  0  0  0  0  0  0  0  0
    1.9580    1.1530    3.4050 H   0  0  0  0  0  0  0  0  0  0  0  0
    1.1740   -0.4030    3.0440 H   0  0  0  0  0  0  0  0  0  0  0  0
   -1.0910    3.0610    2.2600 H   0  0  0  0  0  0  0  0  0  0  0  0
    0.5490    3.3240    2.9000 H   0  0  0  0  0  0  0  0  0  0  0  0
    1.1160    3.7490    0.0100 H   0  0  0  0  0  0  0  0  0  0  0  0
    2.9640    0.1660    1.5150 H   0  0  0  0  0  0  0  0  0  0  0  0
    3.3410    4.7590   -0.2800 H   0  0  0  0  0  0  0  0  0  0  0  0
    5.1730    1.1920    1.2150 H   0  0  0  0  0  0  0  0  0  0  0  0
    1.2640    0.1370    5.4090 H   0  0  0  0  0  0  0  0  0  0  0  0
   -0.3880   -0.0800    4.7810 H   0  0  0  0  0  0  0  0  0  0  0  0
   -1.8040    2.0950    4.3170 H   0  0  0  0  0  0  0  0  0  0  0  0
   -1.0270    3.6620    4.6480 H   0  0  0  0  0  0  0  0  0  0  0  0
   -1.8730    2.5390   -0.9970 H   0  0  0  0  0  0  0  0  0  0  0  0
   -2.4130   -1.2710   -2.9000 H   0  0  0  0  0  0  0  0  0  0  0  0
   -4.3220    2.8930   -1.0210 H   0  0  0  0  0  0  0  0  0  0  0  0
   -4.8590   -0.9100   -2.9240 H   0  0  0  0  0  0  0  0  0  0  0  0
    1.0200    2.5540    5.3420 H   0  0  0  0  0  0  0  0  0  0  0  0
    7.6270    3.6830    0.3780 H   0  0  0  0  0  0  0  0  0  0  0  0
    6.8550    2.1300   -0.0190 H   0  0  0  0  0  0  0  0  0  0  0  0
    6.7620    2.7720    1.6380 H   0  0  0  0  0  0  0  0  0  0  0  0
   -1.3940    1.2650    6.6570 H   0  0  0  0  0  0  0  0  0  0  0  0
   -0.7200    2.8660    7.0430 H   0  0  0  0  0  0  0  0  0  0  0  0
    0.2360    1.3980    7.3590 H   0  0  0  0  0  0  0  0  0  0  0  0
  1  2  1  0  0  0  0
  1  5  2  0  0  0  0
  1  6  1  0  0  0  0
  2  4  1  0  0  0  0
  2  8  1  0  0  0  0
  3  4  2  0  0  0  0
  3  5  1  0  0  0  0
  6  7  1  0  0  0  0
  6  9  1  0  0  0  0
  6 30  1  0  0  0  0
  7 10  1  0  0  0  0
  7 11  1  0  0  0  0
  7 31  1  0  0  0  0
  8 14  1  0  0  0  0
  8 32  1  0  0  0  0
  8 33  1  0  0  0  0
  9 12  2  0  0  0  0
  9 13  1  0  0  0  0
 10 19  1  0  0  0  0
 10 34  1  0  0  0  0
 10 35  1  0  0  0  0
 11 20  1  0  0  0  0
 11 36  1  0  0  0  0
 11 37  1  0  0  0  0
 12 17  1  0  0  0  0
 12 38  1  0  0  0  0
 13 18  2  0  0  0  0
 13 39  1  0  0  0  0
 14 22  2  0  0  0  0
 14 23  1  0  0  0  0
 15 21  1  0  0  0  0
 15 24  2  0  0  0  0
 15 25  1  0  0  0  0
 16 17  2  0  0  0  0
 16 18  1  0  0  0  0
 16 27  1  0  0  0  0
 17 40  1  0  0  0  0
 18 41  1  0  0  0  0
 19 26  1  0  0  0  0
 19 42  1  0  0  0  0
 19 43  1  0  0  0  0
 20 26  1  0  0  0  0
 20 44  1  0  0  0  0
 20 45  1  0  0  0  0
 22 24  1  0  0  0  0
 22 46  1  0  0  0  0
 23 25  2  0  0  0  0
 23 47  1  0  0  0  0
 24 48  1  0  0  0  0
 25 49  1  0  0  0  0
 26 29  1  0  0  0  0
 26 50  1  0  0  0  0
 27 28  1  0  0  0  0
 28 51  1  0  0  0  0
 28 52  1  0  0  0  0
 28 53  1  0  0  0  0
 29 54  1  0  0  0  0
 29 55  1  0  0  0  0
 29 56  1  0  0  0  0
M  CHG  1   7   1
M  END
>  <$CLUSTER>
220

>  <INDEX>
146253

$$$$
Toslab 44086
  MOE2020           3D

 51 53  0  0  1  0  0  0  0  0999 V2000
   -0.1530   -0.7930   -0.6690 C   0  0  0  0  0  0  0  0  0  0  0  0
    0.5800    0.2920   -0.2280 N   0  0  0  0  0  0  0  0  0  0  0  0
    0.1670   -1.0100   -1.9320 N   0  0  0  0  0  0  0  0  0  0  0  0
    1.3580    0.7240   -1.2450 N   0  0  0  0  0  0  0  0  0  0  0  0
    1.0970   -0.0690   -2.2690 N   0  0  0  0  0  0  0  0  0  0  0  0
   -1.1380   -1.6010    0.1020 C   0  0  3  0  0  0  0  0  0  0  0  0
   -0.9130   -3.0680   -0.0970 N   0  3  0  0  0  0  0  0  0  0  0  0
    0.6350    0.9730    1.0750 C   0  0  0  0  0  0  0  0  0  0  0  0
   -2.5670   -1.2940   -0.3370 C   0  0  0  0  0  0  0  0  0  0  0  0
   -3.5810   -1.0860    0.6680 C   0  0  0  0  0  0  0  0  0  0  0  0
   -3.0030   -1.2300   -1.6700 C   0  0  0  0  0  0  0  0  0  0  0  0
   -4.3280   -0.9560   -2.0110 C   0  0  0  0  0  0  0  0  0  0  0  0
   -4.9050   -0.8120    0.3240 C   0  0  0  0  0  0  0  0  0  0  0  0
   -5.2780   -0.7460   -1.0170 C   0  0  0  0  0  0  0  0  0  0  0  0
   -0.8180   -3.6140   -1.5000 C   0  0  0  0  0  0  0  0  0  0  0  0
    0.2680   -3.6010    0.7360 C   0  0  0  0  0  0  0  0  0  0  0  0
    1.2740    0.0480    2.1270 C   0  0  0  0  0  0  0  0  0  0  0  0
   -0.7670    1.4240    1.5300 C   0  0  0  0  0  0  0  0  0  0  0  0
    1.5080    2.2550    1.0070 C   0  0  0  0  0  0  0  0  0  0  0  0
   -6.6950   -0.4480   -1.3820 C   0  0  0  0  0  0  0  0  0  0  0  0
    0.3710   -5.1040    0.6870 C   0  0  0  0  0  0  0  0  0  0  0  0
   -0.7360   -5.0770   -1.5750 C   0  0  0  0  0  0  0  0  0  0  0  0
    0.4310   -5.6100   -0.7510 C   0  0  0  0  0  0  0  0  0  0  0  0
   -0.9990   -1.3370    1.1500 H   0  0  0  0  0  0  0  0  0  0  0  0
   -1.7980   -3.4220    0.2370 H   0  0  0  0  0  0  0  0  0  0  0  0
   -3.3090   -1.1440    1.7110 H   0  0  0  0  0  0  0  0  0  0  0  0
   -2.2870   -1.3990   -2.4600 H   0  0  0  0  0  0  0  0  0  0  0  0
   -4.6170   -0.9070   -3.0500 H   0  0  0  0  0  0  0  0  0  0  0  0
   -5.6410   -0.6510    1.0980 H   0  0  0  0  0  0  0  0  0  0  0  0
    0.0740   -3.1980   -1.9680 H   0  0  0  0  0  0  0  0  0  0  0  0
   -1.7020   -3.2930   -2.0520 H   0  0  0  0  0  0  0  0  0  0  0  0
    0.1330   -3.2930    1.7730 H   0  0  0  0  0  0  0  0  0  0  0  0
    1.1920   -3.1740    0.3470 H   0  0  0  0  0  0  0  0  0  0  0  0
    0.6900   -0.8690    2.2070 H   0  0  0  0  0  0  0  0  0  0  0  0
    1.2920    0.5530    3.0930 H   0  0  0  0  0  0  0  0  0  0  0  0
    2.2930   -0.1960    1.8260 H   0  0  0  0  0  0  0  0  0  0  0  0
   -1.4240    0.5570    1.5950 H   0  0  0  0  0  0  0  0  0  0  0  0
   -1.1720    2.1340    0.8090 H   0  0  0  0  0  0  0  0  0  0  0  0
   -0.6960    1.9000    2.5080 H   0  0  0  0  0  0  0  0  0  0  0  0
    2.5160    1.9910    0.6880 H   0  0  0  0  0  0  0  0  0  0  0  0
    1.5480    2.7200    1.9920 H   0  0  0  0  0  0  0  0  0  0  0  0
    1.0720    2.9540    0.2930 H   0  0  0  0  0  0  0  0  0  0  0  0
   -6.7960   -0.4370   -2.4670 H   0  0  0  0  0  0  0  0  0  0  0  0
   -6.9760    0.5260   -0.9810 H   0  0  0  0  0  0  0  0  0  0  0  0
   -7.3470   -1.2150   -0.9640 H   0  0  0  0  0  0  0  0  0  0  0  0
   -0.5010   -5.5360    1.1790 H   0  0  0  0  0  0  0  0  0  0  0  0
    1.2750   -5.4150    1.2110 H   0  0  0  0  0  0  0  0  0  0  0  0
   -0.6000   -5.3720   -2.6150 H   0  0  0  0  0  0  0  0  0  0  0  0
   -1.6640   -5.5040   -1.1950 H   0  0  0  0  0  0  0  0  0  0  0  0
    0.3940   -6.6990   -0.7460 H   0  0  0  0  0  0  0  0  0  0  0  0
    1.3660   -5.2800   -1.2050 H   0  0  0  0  0  0  0  0  0  0  0  0
  1  2  1  0  0  0  0
  1  3  2  0  0  0  0
  1  6  1  0  0  0  0
  2  4  1  0  0  0  0
  2  8  1  0  0  0  0
  3  5  1  0  0  0  0
  4  5  2  0  0  0  0
  6  7  1  0  0  0  0
  6  9  1  0  0  0  0
  6 24  1  0  0  0  0
  7 15  1  0  0  0  0
  7 16  1  0  0  0  0
  7 25  1  0  0  0  0
  8 17  1  0  0  0  0
  8 18  1  0  0  0  0
  8 19  1  0  0  0  0
  9 10  1  0  0  0  0
  9 11  2  0  0  0  0
 10 13  2  0  0  0  0
 10 26  1  0  0  0  0
 11 12  1  0  0  0  0
 11 27  1  0  0  0  0
 12 14  2  0  0  0  0
 12 28  1  0  0  0  0
 13 14  1  0  0  0  0
 13 29  1  0  0  0  0
 14 20  1  0  0  0  0
 15 22  1  0  0  0  0
 15 30  1  0  0  0  0
 15 31  1  0  0  0  0
 16 21  1  0  0  0  0
 16 32  1  0  0  0  0
 16 33  1  0  0  0  0
 17 34  1  0  0  0  0
 17 35  1  0  0  0  0
 17 36  1  0  0  0  0
 18 37  1  0  0  0  0
 18 38  1  0  0  0  0
 18 39  1  0  0  0  0
 19 40  1  0  0  0  0
 19 41  1  0  0  0  0
 19 42  1  0  0  0  0
 20 43  1  0  0  0  0
 20 44  1  0  0  0  0
 20 45  1  0  0  0  0
 21 23  1  0  0  0  0
 21 46  1  0  0  0  0
 21 47  1  0  0  0  0
 22 23  1  0  0  0  0
 22 48  1  0  0  0  0
 22 49  1  0  0  0  0
 23 50  1  0  0  0  0
 23 51  1  0  0  0  0
M  CHG  1   7   1
M  END
>  <$CLUSTER>
221

>  <INDEX>
479862

$$$$
Asinex BAS 05101595
  MOE2020           3D

 54 57  0  0  0  0  0  0  0  0999 V2000
   -1.8820   -1.8890    1.0830 C   0  0  0  0  0  0  0  0  0  0  0  0
   -3.3590   -2.2170    1.1880 C   0  0  0  0  0  0  0  0  0  0  0  0
   -3.6680   -3.4370    1.7430 N   0  0  0  0  0  0  0  0  0  0  0  0
   -0.1690   -0.2630    0.3560 N   0  0  0  0  0  0  0  0  0  0  0  0
   -1.0140   -2.7930    1.5320 C   0  0  0  0  0  0  0  0  0  0  0  0
    0.4990   -0.6360   -0.8140 C   0  0  0  0  0  0  0  0  0  0  0  0
   -2.7360   -4.3370    2.1890 C   0  0  0  0  0  0  0  0  0  0  0  0
   -1.6070   -0.5280    0.4630 C   0  0  0  0  0  0  0  0  0  0  0  0
   -1.4320   -4.0550    2.1010 C   0  0  0  0  0  0  0  0  0  0  0  0
    1.9740   -0.3260   -0.8850 C   0  0  0  0  0  0  0  0  0  0  0  0
    0.4730    0.3810    1.5100 C   0  0  0  0  0  0  0  0  0  0  0  0
   -4.2220   -1.4340    0.7990 O   0  0  0  0  0  0  0  0  0  0  0  0
   -0.0460   -1.2030   -1.7650 O   0  0  0  0  0  0  0  0  0  0  0  0
   -3.1630   -5.5810    2.7510 C   0  0  0  0  0  0  0  0  0  0  0  0
   -0.4370   -4.9720    2.5570 C   0  0  0  0  0  0  0  0  0  0  0  0
    2.5400   -0.1760   -2.1410 C   0  0  0  0  0  0  0  0  0  0  0  0
    2.7390   -0.2020    0.2700 C   0  0  0  0  0  0  0  0  0  0  0  0
   -2.2090   -6.4910    3.2020 C   0  0  0  0  0  0  0  0  0  0  0  0
    0.3430    1.8960    1.4590 C   0  0  0  0  0  0  0  0  0  0  0  0
   -0.8500   -6.1880    3.1070 C   0  0  0  0  0  0  0  0  0  0  0  0
    3.9020    0.1130   -2.2510 C   0  0  0  0  0  0  0  0  0  0  0  0
    4.1010    0.0870    0.1540 C   0  0  0  0  0  0  0  0  0  0  0  0
    4.6810    0.2460   -1.1030 C   0  0  0  0  0  0  0  0  0  0  0  0
   -2.6440   -7.7950    3.7890 C   0  0  0  0  0  0  0  0  0  0  0  0
    6.1370    0.5600   -1.2230 C   0  0  0  0  0  0  0  0  0  0  0  0
   -0.6480    2.5480    2.2030 C   0  0  0  0  0  0  0  0  0  0  0  0
    1.2020    2.6510    0.6480 C   0  0  0  0  0  0  0  0  0  0  0  0
   -0.7610    3.9410    2.1570 C   0  0  0  0  0  0  0  0  0  0  0  0
    1.0880    4.0420    0.6040 C   0  0  0  0  0  0  0  0  0  0  0  0
    0.1080    4.6870    1.3600 C   0  0  0  0  0  0  0  0  0  0  0  0
   -4.6430   -3.6850    1.8270 H   0  0  0  0  0  0  0  0  0  0  0  0
    0.0420   -2.5760    1.4690 H   0  0  0  0  0  0  0  0  0  0  0  0
   -2.0630    0.2420    1.0850 H   0  0  0  0  0  0  0  0  0  0  0  0
   -2.0470   -0.4980   -0.5340 H   0  0  0  0  0  0  0  0  0  0  0  0
    1.5310    0.1180    1.5170 H   0  0  0  0  0  0  0  0  0  0  0  0
    0.0020    0.0170    2.4230 H   0  0  0  0  0  0  0  0  0  0  0  0
   -4.2150   -5.8130    2.8250 H   0  0  0  0  0  0  0  0  0  0  0  0
    0.6130   -4.7310    2.4780 H   0  0  0  0  0  0  0  0  0  0  0  0
    1.9330   -0.2820   -3.0280 H   0  0  0  0  0  0  0  0  0  0  0  0
    2.2870   -0.3270    1.2430 H   0  0  0  0  0  0  0  0  0  0  0  0
   -0.1150   -6.8960    3.4600 H   0  0  0  0  0  0  0  0  0  0  0  0
    4.3520    0.2330   -3.2260 H   0  0  0  0  0  0  0  0  0  0  0  0
    4.7070    0.1880    1.0420 H   0  0  0  0  0  0  0  0  0  0  0  0
   -3.7320   -7.8530    3.7800 H   0  0  0  0  0  0  0  0  0  0  0  0
   -2.2850   -7.8690    4.8150 H   0  0  0  0  0  0  0  0  0  0  0  0
   -2.2320   -8.6140    3.2000 H   0  0  0  0  0  0  0  0  0  0  0  0
    6.4040    0.6470   -2.2760 H   0  0  0  0  0  0  0  0  0  0  0  0
    6.7200   -0.2390   -0.7650 H   0  0  0  0  0  0  0  0  0  0  0  0
    6.3490    1.5010   -0.7160 H   0  0  0  0  0  0  0  0  0  0  0  0
   -1.3270    1.9730    2.8150 H   0  0  0  0  0  0  0  0  0  0  0  0
    1.9550    2.1540    0.0550 H   0  0  0  0  0  0  0  0  0  0  0  0
   -1.5220    4.4400    2.7390 H   0  0  0  0  0  0  0  0  0  0  0  0
    1.7590    4.6190   -0.0150 H   0  0  0  0  0  0  0  0  0  0  0  0
    0.0220    5.7630    1.3280 H   0  0  0  0  0  0  0  0  0  0  0  0
  1  2  1  0  0  0  0
  1  5  2  0  0  0  0
  1  8  1  0  0  0  0
  2  3  1  0  0  0  0
  2 12  2  0  0  0  0
  3  7  1  0  0  0  0
  3 31  1  0  0  0  0
  4  6  1  0  0  0  0
  4  8  1  0  0  0  0
  4 11  1  0  0  0  0
  5  9  1  0  0  0  0
  5 32  1  0  0  0  0
  6 10  1  0  0  0  0
  6 13  2  0  0  0  0
  7  9  2  0  0  0  0
  7 14  1  0  0  0  0
  8 33  1  0  0  0  0
  8 34  1  0  0  0  0
  9 15  1  0  0  0  0
 10 16  2  0  0  0  0
 10 17  1  0  0  0  0
 11 19  1  0  0  0  0
 11 35  1  0  0  0  0
 11 36  1  0  0  0  0
 14 18  2  0  0  0  0
 14 37  1  0  0  0  0
 15 20  2  0  0  0  0
 15 38  1  0  0  0  0
 16 21  1  0  0  0  0
 16 39  1  0  0  0  0
 17 22  2  0  0  0  0
 17 40  1  0  0  0  0
 18 20  1  0  0  0  0
 18 24  1  0  0  0  0
 19 26  2  0  0  0  0
 19 27  1  0  0  0  0
 20 41  1  0  0  0  0
 21 23  2  0  0  0  0
 21 42  1  0  0  0  0
 22 23  1  0  0  0  0
 22 43  1  0  0  0  0
 23 25  1  0  0  0  0
 24 44  1  0  0  0  0
 24 45  1  0  0  0  0
 24 46  1  0  0  0  0
 25 47  1  0  0  0  0
 25 48  1  0  0  0  0
 25 49  1  0  0  0  0
 26 28  1  0  0  0  0
 26 50  1  0  0  0  0
 27 29  2  0  0  0  0
 27 51  1  0  0  0  0
 28 30  2  0  0  0  0
 28 52  1  0  0  0  0
 29 30  1  0  0  0  0
 29 53  1  0  0  0  0
 30 54  1  0  0  0  0
M  END
>  <$CLUSTER>
222

>  <INDEX>
181503

$$$$
Asinex ASN 05106624
  MOE2020           3D

 57 60  0  0  0  0  0  0  0  0999 V2000
   -1.6600    1.2410    1.4910 C   0  0  0  0  0  0  0  0  0  0  0  0
   -2.5070    2.4880    1.6330 C   0  0  0  0  0  0  0  0  0  0  0  0
   -3.1540    2.6430    2.8370 N   0  0  0  0  0  0  0  0  0  0  0  0
   -1.6050    0.4050    2.5270 C   0  0  0  0  0  0  0  0  0  0  0  0
   -3.0690    1.7530    3.8750 C   0  0  0  0  0  0  0  0  0  0  0  0
    1.1870   -0.1980    0.2990 C   0  0  0  0  0  0  0  0  0  0  0  0
   -0.1810   -0.1080    0.0310 N   0  0  0  0  0  0  0  0  0  0  0  0
   -2.3210    0.6500    3.7580 C   0  0  0  0  0  0  0  0  0  0  0  0
   -0.9710    1.1270    0.1400 C   0  0  0  0  0  0  0  0  0  0  0  0
   -3.7830    2.0080    5.0880 C   0  0  0  0  0  0  0  0  0  0  0  0
   -2.2140   -0.2960    4.8220 C   0  0  0  0  0  0  0  0  0  0  0  0
   -3.6920    1.0980    6.1400 C   0  0  0  0  0  0  0  0  0  0  0  0
   -2.9090   -0.0500    6.0080 C   0  0  0  0  0  0  0  0  0  0  0  0
   -2.6060    3.3080    0.7230 O   0  0  0  0  0  0  0  0  0  0  0  0
    1.8450   -1.2350    0.1760 O   0  0  0  0  0  0  0  0  0  0  0  0
    1.8770    1.0660    0.7510 C   0  0  0  0  0  0  0  0  0  0  0  0
   -0.8980   -1.3140   -0.3950 C   0  0  0  0  0  0  0  0  0  0  0  0
   -0.9040   -1.4580   -1.9090 C   0  0  0  0  0  0  0  0  0  0  0  0
   -1.6520   -2.6950   -2.3550 C   0  0  0  0  0  0  0  0  0  0  0  0
   -4.4350    1.3540    7.4120 C   0  0  0  0  0  0  0  0  0  0  0  0
   -2.8110   -1.0230    7.1400 C   0  0  0  0  0  0  0  0  0  0  0  0
    3.0280    0.9340    1.5110 C   0  0  0  0  0  0  0  0  0  0  0  0
    1.3780    2.3190    0.4110 C   0  0  0  0  0  0  0  0  0  0  0  0
   -3.0300   -2.6410   -2.6050 C   0  0  0  0  0  0  0  0  0  0  0  0
   -0.9840   -3.9180   -2.4920 C   0  0  0  0  0  0  0  0  0  0  0  0
    2.0510    3.4620    0.8520 C   0  0  0  0  0  0  0  0  0  0  0  0
    3.6950    2.0790    1.9500 C   0  0  0  0  0  0  0  0  0  0  0  0
   -3.7220   -3.7870   -3.0000 C   0  0  0  0  0  0  0  0  0  0  0  0
   -1.6780   -5.0630   -2.8870 C   0  0  0  0  0  0  0  0  0  0  0  0
    3.2060    3.3420    1.6230 C   0  0  0  0  0  0  0  0  0  0  0  0
   -3.0450   -4.9960   -3.1420 C   0  0  0  0  0  0  0  0  0  0  0  0
   -3.7280    3.4650    2.9640 H   0  0  0  0  0  0  0  0  0  0  0  0
   -1.0030   -0.4880    2.4440 H   0  0  0  0  0  0  0  0  0  0  0  0
   -0.3080    1.9820    0.0090 H   0  0  0  0  0  0  0  0  0  0  0  0
   -1.7290    1.1310   -0.6440 H   0  0  0  0  0  0  0  0  0  0  0  0
   -4.3870    2.8980    5.1880 H   0  0  0  0  0  0  0  0  0  0  0  0
   -1.6080   -1.1830    4.7120 H   0  0  0  0  0  0  0  0  0  0  0  0
   -1.9270   -1.2570   -0.0410 H   0  0  0  0  0  0  0  0  0  0  0  0
   -0.4120   -2.1870    0.0410 H   0  0  0  0  0  0  0  0  0  0  0  0
    0.1260   -1.5230   -2.2610 H   0  0  0  0  0  0  0  0  0  0  0  0
   -1.3820   -0.5810   -2.3450 H   0  0  0  0  0  0  0  0  0  0  0  0
   -4.9860    2.2910    7.3290 H   0  0  0  0  0  0  0  0  0  0  0  0
   -3.7280    1.4210    8.2390 H   0  0  0  0  0  0  0  0  0  0  0  0
   -5.1330    0.5370    7.5960 H   0  0  0  0  0  0  0  0  0  0  0  0
   -2.1600   -1.8490    6.8540 H   0  0  0  0  0  0  0  0  0  0  0  0
   -3.8030   -1.4070    7.3760 H   0  0  0  0  0  0  0  0  0  0  0  0
   -2.3980   -0.5220    8.0150 H   0  0  0  0  0  0  0  0  0  0  0  0
    3.4060   -0.0460    1.7620 H   0  0  0  0  0  0  0  0  0  0  0  0
    0.4820    2.4080   -0.1860 H   0  0  0  0  0  0  0  0  0  0  0  0
   -3.5600   -1.7070   -2.4910 H   0  0  0  0  0  0  0  0  0  0  0  0
    0.0750   -3.9760   -2.2910 H   0  0  0  0  0  0  0  0  0  0  0  0
    1.6750    4.4410    0.5950 H   0  0  0  0  0  0  0  0  0  0  0  0
    4.5920    1.9860    2.5440 H   0  0  0  0  0  0  0  0  0  0  0  0
   -4.7830   -3.7360   -3.1960 H   0  0  0  0  0  0  0  0  0  0  0  0
   -1.1540   -6.0010   -2.9950 H   0  0  0  0  0  0  0  0  0  0  0  0
    3.7210    4.2270    1.9660 H   0  0  0  0  0  0  0  0  0  0  0  0
   -3.5810   -5.8820   -3.4500 H   0  0  0  0  0  0  0  0  0  0  0  0
  1  2  1  0  0  0  0
  1  4  2  0  0  0  0
  1  9  1  0  0  0  0
  2  3  1  0  0  0  0
  2 14  2  0  0  0  0
  3  5  1  0  0  0  0
  3 32  1  0  0  0  0
  4  8  1  0  0  0  0
  4 33  1  0  0  0  0
  5  8  2  0  0  0  0
  5 10  1  0  0  0  0
  6  7  1  0  0  0  0
  6 15  2  0  0  0  0
  6 16  1  0  0  0  0
  7  9  1  0  0  0  0
  7 17  1  0  0  0  0
  8 11  1  0  0  0  0
  9 34  1  0  0  0  0
  9 35  1  0  0  0  0
 10 12  2  0  0  0  0
 10 36  1  0  0  0  0
 11 13  2  0  0  0  0
 11 37  1  0  0  0  0
 12 13  1  0  0  0  0
 12 20  1  0  0  0  0
 13 21  1  0  0  0  0
 16 22  1  0  0  0  0
 16 23  2  0  0  0  0
 17 18  1  0  0  0  0
 17 38  1  0  0  0  0
 17 39  1  0  0  0  0
 18 19  1  0  0  0  0
 18 40  1  0  0  0  0
 18 41  1  0  0  0  0
 19 24  2  0  0  0  0
 19 25  1  0  0  0  0
 20 42  1  0  0  0  0
 20 43  1  0  0  0  0
 20 44  1  0  0  0  0
 21 45  1  0  0  0  0
 21 46  1  0  0  0  0
 21 47  1  0  0  0  0
 22 27  2  0  0  0  0
 22 48  1  0  0  0  0
 23 26  1  0  0  0  0
 23 49  1  0  0  0  0
 24 28  1  0  0  0  0
 24 50  1  0  0  0  0
 25 29  2  0  0  0  0
 25 51  1  0  0  0  0
 26 30  2  0  0  0  0
 26 52  1  0  0  0  0
 27 30  1  0  0  0  0
 27 53  1  0  0  0  0
 28 31  2  0  0  0  0
 28 54  1  0  0  0  0
 29 31  1  0  0  0  0
 29 55  1  0  0  0  0
 30 56  1  0  0  0  0
 31 57  1  0  0  0  0
M  END
>  <$CLUSTER>
223

>  <INDEX>
143334

$$$$
Asinex ASN 05108157
  MOE2020           3D

 55 57  0  0  0  0  0  0  0  0999 V2000
   -1.6600    1.2410    1.4910 C   0  0  0  0  0  0  0  0  0  0  0  0
   -2.5070    2.4880    1.6330 C   0  0  0  0  0  0  0  0  0  0  0  0
   -3.1540    2.6430    2.8370 N   0  0  0  0  0  0  0  0  0  0  0  0
   -1.6050    0.4050    2.5270 C   0  0  0  0  0  0  0  0  0  0  0  0
    1.1870   -0.1980    0.2990 C   0  0  0  0  0  0  0  0  0  0  0  0
   -0.1810   -0.1080    0.0310 N   0  0  0  0  0  0  0  0  0  0  0  0
   -2.3210    0.6500    3.7580 C   0  0  0  0  0  0  0  0  0  0  0  0
   -0.9710    1.1270    0.1400 C   0  0  0  0  0  0  0  0  0  0  0  0
   -3.0690    1.7530    3.8750 C   0  0  0  0  0  0  0  0  0  0  0  0
    1.8770    1.0660    0.7510 C   0  0  0  0  0  0  0  0  0  0  0  0
   -2.6060    3.3080    0.7230 O   0  0  0  0  0  0  0  0  0  0  0  0
    1.8450   -1.2350    0.1760 O   0  0  0  0  0  0  0  0  0  0  0  0
   -2.2140   -0.2960    4.8220 C   0  0  0  0  0  0  0  0  0  0  0  0
   -3.7830    2.0080    5.0880 C   0  0  0  0  0  0  0  0  0  0  0  0
    3.0280    0.9340    1.5110 C   0  0  0  0  0  0  0  0  0  0  0  0
    1.3780    2.3190    0.4110 C   0  0  0  0  0  0  0  0  0  0  0  0
   -2.9090   -0.0500    6.0080 C   0  0  0  0  0  0  0  0  0  0  0  0
   -3.6920    1.0980    6.1400 C   0  0  0  0  0  0  0  0  0  0  0  0
    3.6950    2.0790    1.9500 C   0  0  0  0  0  0  0  0  0  0  0  0
    2.0510    3.4620    0.8520 C   0  0  0  0  0  0  0  0  0  0  0  0
    3.2060    3.3420    1.6230 C   0  0  0  0  0  0  0  0  0  0  0  0
   -0.8980   -1.3140   -0.3950 C   0  0  0  0  0  0  0  0  0  0  0  0
   -0.9040   -1.4580   -1.9090 C   0  0  0  0  0  0  0  0  0  0  0  0
   -2.7410   -1.0180    6.9690 O   0  0  0  0  0  0  0  0  0  0  0  0
   -1.6180   -2.7680   -3.7750 O   0  0  0  0  0  0  0  0  0  0  0  0
   -1.6520   -2.6950   -2.3550 C   0  0  0  0  0  0  0  0  0  0  0  0
   -3.4250   -0.8290    8.2070 C   0  0  0  0  0  0  0  0  0  0  0  0
    3.9220    4.5640    2.0970 C   0  0  0  0  0  0  0  0  0  0  0  0
   -3.0970   -2.0070    9.1070 C   0  0  0  0  0  0  0  0  0  0  0  0
   -3.7280    3.4650    2.9640 H   0  0  0  0  0  0  0  0  0  0  0  0
   -1.0030   -0.4880    2.4440 H   0  0  0  0  0  0  0  0  0  0  0  0
   -0.3080    1.9820    0.0090 H   0  0  0  0  0  0  0  0  0  0  0  0
   -1.7290    1.1310   -0.6440 H   0  0  0  0  0  0  0  0  0  0  0  0
   -1.6080   -1.1830    4.7120 H   0  0  0  0  0  0  0  0  0  0  0  0
   -4.3870    2.8980    5.1880 H   0  0  0  0  0  0  0  0  0  0  0  0
    3.4060   -0.0460    1.7620 H   0  0  0  0  0  0  0  0  0  0  0  0
    0.4820    2.4080   -0.1860 H   0  0  0  0  0  0  0  0  0  0  0  0
   -4.2280    1.2820    7.0590 H   0  0  0  0  0  0  0  0  0  0  0  0
    4.5920    1.9860    2.5440 H   0  0  0  0  0  0  0  0  0  0  0  0
    1.6750    4.4410    0.5950 H   0  0  0  0  0  0  0  0  0  0  0  0
   -1.9270   -1.2570   -0.0410 H   0  0  0  0  0  0  0  0  0  0  0  0
   -0.4120   -2.1870    0.0410 H   0  0  0  0  0  0  0  0  0  0  0  0
    0.1260   -1.5230   -2.2610 H   0  0  0  0  0  0  0  0  0  0  0  0
   -1.3820   -0.5810   -2.3450 H   0  0  0  0  0  0  0  0  0  0  0  0
   -2.0970   -3.5580   -4.0370 H   0  0  0  0  0  0  0  0  0  0  0  0
   -2.6870   -2.6390   -2.0160 H   0  0  0  0  0  0  0  0  0  0  0  0
   -1.1790   -3.5810   -1.9320 H   0  0  0  0  0  0  0  0  0  0  0  0
   -4.5000   -0.7840    8.0330 H   0  0  0  0  0  0  0  0  0  0  0  0
   -3.0940    0.0980    8.6750 H   0  0  0  0  0  0  0  0  0  0  0  0
    4.7950    4.2700    2.6800 H   0  0  0  0  0  0  0  0  0  0  0  0
    3.2530    5.1590    2.7190 H   0  0  0  0  0  0  0  0  0  0  0  0
    4.2410    5.1540    1.2380 H   0  0  0  0  0  0  0  0  0  0  0  0
   -3.4310   -2.9300    8.6330 H   0  0  0  0  0  0  0  0  0  0  0  0
   -3.6050   -1.8860   10.0640 H   0  0  0  0  0  0  0  0  0  0  0  0
   -2.0200   -2.0510    9.2700 H   0  0  0  0  0  0  0  0  0  0  0  0
  1  2  1  0  0  0  0
  1  4  2  0  0  0  0
  1  8  1  0  0  0  0
  2  3  1  0  0  0  0
  2 11  2  0  0  0  0
  3  9  1  0  0  0  0
  3 30  1  0  0  0  0
  4  7  1  0  0  0  0
  4 31  1  0  0  0  0
  5  6  1  0  0  0  0
  5 10  1  0  0  0  0
  5 12  2  0  0  0  0
  6  8  1  0  0  0  0
  6 22  1  0  0  0  0
  7  9  2  0  0  0  0
  7 13  1  0  0  0  0
  8 32  1  0  0  0  0
  8 33  1  0  0  0  0
  9 14  1  0  0  0  0
 10 15  2  0  0  0  0
 10 16  1  0  0  0  0
 13 17  2  0  0  0  0
 13 34  1  0  0  0  0
 14 18  2  0  0  0  0
 14 35  1  0  0  0  0
 15 19  1  0  0  0  0
 15 36  1  0  0  0  0
 16 20  2  0  0  0  0
 16 37  1  0  0  0  0
 17 18  1  0  0  0  0
 17 24  1  0  0  0  0
 18 38  1  0  0  0  0
 19 21  2  0  0  0  0
 19 39  1  0  0  0  0
 20 21  1  0  0  0  0
 20 40  1  0  0  0  0
 21 28  1  0  0  0  0
 22 23  1  0  0  0  0
 22 41  1  0  0  0  0
 22 42  1  0  0  0  0
 23 26  1  0  0  0  0
 23 43  1  0  0  0  0
 23 44  1  0  0  0  0
 24 27  1  0  0  0  0
 25 26  1  0  0  0  0
 25 45  1  0  0  0  0
 26 46  1  0  0  0  0
 26 47  1  0  0  0  0
 27 29  1  0  0  0  0
 27 48  1  0  0  0  0
 27 49  1  0  0  0  0
 28 50  1  0  0  0  0
 28 51  1  0  0  0  0
 28 52  1  0  0  0  0
 29 53  1  0  0  0  0
 29 54  1  0  0  0  0
 29 55  1  0  0  0  0
M  END
>  <$CLUSTER>
224

>  <INDEX>
143509

$$$$
Asinex ASN 05110337
  MOE2020           3D

 51 55  0  0  0  0  0  0  0  0999 V2000
   -1.6600    1.2410    1.4910 C   0  0  0  0  0  0  0  0  0  0  0  0
   -2.5070    2.4880    1.6330 C   0  0  0  0  0  0  0  0  0  0  0  0
   -3.1540    2.6430    2.8370 N   0  0  0  0  0  0  0  0  0  0  0  0
   -0.1810   -0.1080    0.0310 N   0  0  0  0  0  0  0  0  0  0  0  0
   -1.6050    0.4050    2.5270 C   0  0  0  0  0  0  0  0  0  0  0  0
   -3.0690    1.7530    3.8750 C   0  0  0  0  0  0  0  0  0  0  0  0
    1.1870   -0.1980    0.2990 C   0  0  0  0  0  0  0  0  0  0  0  0
   -2.3210    0.6500    3.7580 C   0  0  0  0  0  0  0  0  0  0  0  0
   -0.9710    1.1270    0.1400 C   0  0  0  0  0  0  0  0  0  0  0  0
   -3.7830    2.0080    5.0880 C   0  0  0  0  0  0  0  0  0  0  0  0
   -3.6920    1.0980    6.1400 C   0  0  0  0  0  0  0  0  0  0  0  0
   -2.9090   -0.0500    6.0080 C   0  0  0  0  0  0  0  0  0  0  0  0
   -2.2140   -0.2960    4.8220 C   0  0  0  0  0  0  0  0  0  0  0  0
   -0.9040   -1.4580   -1.9090 C   0  0  0  0  0  0  0  0  0  0  0  0
   -0.8980   -1.3140   -0.3950 C   0  0  0  0  0  0  0  0  0  0  0  0
    1.8770    1.0660    0.7510 C   0  0  0  0  0  0  0  0  0  0  0  0
    0.1550   -2.1130   -2.4340 O   0  0  0  0  0  0  0  0  0  0  0  0
   -2.6060    3.3080    0.7230 O   0  0  0  0  0  0  0  0  0  0  0  0
    1.8450   -1.2350    0.1760 O   0  0  0  0  0  0  0  0  0  0  0  0
   -4.3810    1.4230    7.2960 O   0  0  0  0  0  0  0  0  0  0  0  0
   -2.7950   -1.0140    6.9940 O   0  0  0  0  0  0  0  0  0  0  0  0
   -1.7640   -1.0250   -2.8690 C   0  0  0  0  0  0  0  0  0  0  0  0
   -0.0420   -2.1140   -3.7780 C   0  0  0  0  0  0  0  0  0  0  0  0
   -1.2070   -1.4570   -4.0960 C   0  0  0  0  0  0  0  0  0  0  0  0
    3.0280    0.9340    1.5110 C   0  0  0  0  0  0  0  0  0  0  0  0
    1.3780    2.3190    0.4110 C   0  0  0  0  0  0  0  0  0  0  0  0
    3.2060    3.3420    1.6230 C   0  0  0  0  0  0  0  0  0  0  0  0
    2.0510    3.4620    0.8520 C   0  0  0  0  0  0  0  0  0  0  0  0
    3.6950    2.0790    1.9500 C   0  0  0  0  0  0  0  0  0  0  0  0
    3.7820    4.4830    2.0050 F   0  0  0  0  0  0  0  0  0  0  0  0
   -3.9350    0.6210    8.4040 C   0  0  0  0  0  0  0  0  0  0  0  0
   -3.8100   -0.8430    8.0000 C   0  0  0  0  0  0  0  0  0  0  0  0
   -3.7280    3.4650    2.9640 H   0  0  0  0  0  0  0  0  0  0  0  0
   -1.0030   -0.4880    2.4440 H   0  0  0  0  0  0  0  0  0  0  0  0
   -0.3080    1.9820    0.0090 H   0  0  0  0  0  0  0  0  0  0  0  0
   -1.7290    1.1310   -0.6440 H   0  0  0  0  0  0  0  0  0  0  0  0
   -4.3870    2.8980    5.1880 H   0  0  0  0  0  0  0  0  0  0  0  0
   -1.6080   -1.1830    4.7120 H   0  0  0  0  0  0  0  0  0  0  0  0
   -1.9270   -1.2570   -0.0410 H   0  0  0  0  0  0  0  0  0  0  0  0
   -0.4120   -2.1870    0.0410 H   0  0  0  0  0  0  0  0  0  0  0  0
   -2.6790   -0.4690   -2.7250 H   0  0  0  0  0  0  0  0  0  0  0  0
    0.6240   -2.5680   -4.4970 H   0  0  0  0  0  0  0  0  0  0  0  0
   -1.6150   -1.3020   -5.0840 H   0  0  0  0  0  0  0  0  0  0  0  0
    3.4060   -0.0460    1.7620 H   0  0  0  0  0  0  0  0  0  0  0  0
    0.4820    2.4080   -0.1860 H   0  0  0  0  0  0  0  0  0  0  0  0
    1.6750    4.4410    0.5950 H   0  0  0  0  0  0  0  0  0  0  0  0
    4.5920    1.9860    2.5440 H   0  0  0  0  0  0  0  0  0  0  0  0
   -4.6540    0.7060    9.2190 H   0  0  0  0  0  0  0  0  0  0  0  0
   -2.9630    0.9830    8.7380 H   0  0  0  0  0  0  0  0  0  0  0  0
   -3.5460   -1.4340    8.8770 H   0  0  0  0  0  0  0  0  0  0  0  0
   -4.7660   -1.1870    7.6050 H   0  0  0  0  0  0  0  0  0  0  0  0
  1  2  1  0  0  0  0
  1  5  2  0  0  0  0
  1  9  1  0  0  0  0
  2  3  1  0  0  0  0
  2 18  2  0  0  0  0
  3  6  1  0  0  0  0
  3 33  1  0  0  0  0
  4  7  1  0  0  0  0
  4  9  1  0  0  0  0
  4 15  1  0  0  0  0
  5  8  1  0  0  0  0
  5 34  1  0  0  0  0
  6  8  1  0  0  0  0
  6 10  2  0  0  0  0
  7 16  1  0  0  0  0
  7 19  2  0  0  0  0
  8 13  2  0  0  0  0
  9 35  1  0  0  0  0
  9 36  1  0  0  0  0
 10 11  1  0  0  0  0
 10 37  1  0  0  0  0
 11 12  2  0  0  0  0
 11 20  1  0  0  0  0
 12 13  1  0  0  0  0
 12 21  1  0  0  0  0
 13 38  1  0  0  0  0
 14 15  1  0  0  0  0
 14 17  1  0  0  0  0
 14 22  2  0  0  0  0
 15 39  1  0  0  0  0
 15 40  1  0  0  0  0
 16 25  1  0  0  0  0
 16 26  2  0  0  0  0
 17 23  1  0  0  0  0
 20 31  1  0  0  0  0
 21 32  1  0  0  0  0
 22 24  1  0  0  0  0
 22 41  1  0  0  0  0
 23 24  2  0  0  0  0
 23 42  1  0  0  0  0
 24 43  1  0  0  0  0
 25 29  2  0  0  0  0
 25 44  1  0  0  0  0
 26 28  1  0  0  0  0
 26 45  1  0  0  0  0
 27 28  2  0  0  0  0
 27 29  1  0  0  0  0
 27 30  1  0  0  0  0
 28 46  1  0  0  0  0
 29 47  1  0  0  0  0
 31 32  1  0  0  0  0
 31 48  1  0  0  0  0
 31 49  1  0  0  0  0
 32 50  1  0  0  0  0
 32 51  1  0  0  0  0
M  END
>  <$CLUSTER>
225

>  <INDEX>
143704

$$$$
Asinex ASN 05211765
  MOE2020           3D

 57 59  0  0  0  0  0  0  0  0999 V2000
    0.7120    1.9090   -1.5270 C   0  0  0  0  0  0  0  0  0  0  0  0
   -0.3180    0.1950    0.0110 C   0  0  0  0  0  0  0  0  0  0  0  0
    0.6640    1.1450   -0.3690 N   0  0  0  0  0  0  0  0  0  0  0  0
   -2.1920   -1.7050    0.8770 C   0  0  0  0  0  0  0  0  0  0  0  0
   -1.4330   -0.1150   -0.7770 C   0  0  0  0  0  0  0  0  0  0  0  0
   -1.0870   -1.4080    1.6730 C   0  0  0  0  0  0  0  0  0  0  0  0
   -3.1780   -2.6620    1.2660 N   0  0  0  0  0  0  0  0  0  0  0  0
   -3.2260   -3.4260    2.4240 C   0  0  0  0  0  0  0  0  0  0  0  0
   -0.1460   -0.4610    1.2500 C   0  0  0  0  0  0  0  0  0  0  0  0
   -2.3650   -1.0610   -0.3440 C   0  0  0  0  0  0  0  0  0  0  0  0
   -5.7350   -3.5430    2.5180 N   0  3  0  0  0  0  0  0  0  0  0  0
   -0.0850    1.9200   -2.4600 O   0  0  0  0  0  0  0  0  0  0  0  0
   -4.4440   -4.3150    2.4400 C   0  0  0  0  0  0  0  0  0  0  0  0
    1.9290    2.7990   -1.5420 C   0  0  0  0  0  0  0  0  0  0  0  0
   -2.4290   -3.4380    3.3570 O   0  0  0  0  0  0  0  0  0  0  0  0
   -3.4860   -1.4140   -1.0700 O   0  0  0  0  0  0  0  0  0  0  0  0
    0.9720   -0.1040    1.9670 O   0  0  0  0  0  0  0  0  0  0  0  0
   -6.9230   -4.3830    2.1610 C   0  0  0  0  0  0  0  0  0  0  0  0
   -5.9400   -2.8470    3.8410 C   0  0  0  0  0  0  0  0  0  0  0  0
    2.3830    3.2140   -2.8320 C   0  0  0  0  0  0  0  0  0  0  0  0
    2.5680    3.2750   -0.4210 C   0  0  0  0  0  0  0  0  0  0  0  0
    1.1770   -0.7450    3.2200 C   0  0  0  0  0  0  0  0  0  0  0  0
   -3.6910   -0.7730   -2.3230 C   0  0  0  0  0  0  0  0  0  0  0  0
   -8.1940   -3.5460    2.1180 C   0  0  0  0  0  0  0  0  0  0  0  0
   -7.1820   -1.9910    3.8210 C   0  0  0  0  0  0  0  0  0  0  0  0
    3.6740    4.1220   -0.5330 C   0  0  0  0  0  0  0  0  0  0  0  0
    3.4900    4.0580   -2.9380 C   0  0  0  0  0  0  0  0  0  0  0  0
    4.1360    4.5110   -1.7890 C   0  0  0  0  0  0  0  0  0  0  0  0
   -8.4130   -2.8040    3.4330 C   0  0  0  0  0  0  0  0  0  0  0  0
    1.4220    1.2830    0.2840 H   0  0  0  0  0  0  0  0  0  0  0  0
   -1.5730    0.3810   -1.7260 H   0  0  0  0  0  0  0  0  0  0  0  0
   -0.9560   -1.9100    2.6200 H   0  0  0  0  0  0  0  0  0  0  0  0
   -3.9380   -2.8010    0.6150 H   0  0  0  0  0  0  0  0  0  0  0  0
   -5.6500   -2.8170    1.8220 H   0  0  0  0  0  0  0  0  0  0  0  0
   -4.3810   -4.9750    3.3050 H   0  0  0  0  0  0  0  0  0  0  0  0
   -4.4510   -4.9120    1.5280 H   0  0  0  0  0  0  0  0  0  0  0  0
   -7.0400   -5.1690    2.9070 H   0  0  0  0  0  0  0  0  0  0  0  0
   -6.7600   -4.8320    1.1820 H   0  0  0  0  0  0  0  0  0  0  0  0
   -5.0760   -2.2150    4.0480 H   0  0  0  0  0  0  0  0  0  0  0  0
   -6.0380   -3.5970    4.6260 H   0  0  0  0  0  0  0  0  0  0  0  0
    1.8720    2.8760   -3.7210 H   0  0  0  0  0  0  0  0  0  0  0  0
    2.2110    2.9910    0.5580 H   0  0  0  0  0  0  0  0  0  0  0  0
    2.0930   -0.3690    3.6750 H   0  0  0  0  0  0  0  0  0  0  0  0
    1.2620   -1.8210    3.0680 H   0  0  0  0  0  0  0  0  0  0  0  0
    0.3330   -0.5360    3.8770 H   0  0  0  0  0  0  0  0  0  0  0  0
   -4.6070   -1.1490   -2.7780 H   0  0  0  0  0  0  0  0  0  0  0  0
   -2.8470   -0.9820   -2.9800 H   0  0  0  0  0  0  0  0  0  0  0  0
   -3.7760    0.3030   -2.1710 H   0  0  0  0  0  0  0  0  0  0  0  0
   -9.0450   -4.2020    1.9340 H   0  0  0  0  0  0  0  0  0  0  0  0
   -8.1140   -2.8200    1.3090 H   0  0  0  0  0  0  0  0  0  0  0  0
   -7.0460   -1.1860    3.0980 H   0  0  0  0  0  0  0  0  0  0  0  0
   -7.3360   -1.5660    4.8130 H   0  0  0  0  0  0  0  0  0  0  0  0
    4.1730    4.4760    0.3570 H   0  0  0  0  0  0  0  0  0  0  0  0
    3.8460    4.3600   -3.9120 H   0  0  0  0  0  0  0  0  0  0  0  0
    4.9930    5.1630   -1.8720 H   0  0  0  0  0  0  0  0  0  0  0  0
   -8.6220   -3.5290    4.2190 H   0  0  0  0  0  0  0  0  0  0  0  0
   -9.2630   -2.1310    3.3240 H   0  0  0  0  0  0  0  0  0  0  0  0
  1  3  1  0  0  0  0
  1 12  2  0  0  0  0
  1 14  1  0  0  0  0
  2  3  1  0  0  0  0
  2  5  1  0  0  0  0
  2  9  2  0  0  0  0
  3 30  1  0  0  0  0
  4  6  2  0  0  0  0
  4  7  1  0  0  0  0
  4 10  1  0  0  0  0
  5 10  2  0  0  0  0
  5 31  1  0  0  0  0
  6  9  1  0  0  0  0
  6 32  1  0  0  0  0
  7  8  1  0  0  0  0
  7 33  1  0  0  0  0
  8 13  1  0  0  0  0
  8 15  2  0  0  0  0
  9 17  1  0  0  0  0
 10 16  1  0  0  0  0
 11 13  1  0  0  0  0
 11 18  1  0  0  0  0
 11 19  1  0  0  0  0
 11 34  1  0  0  0  0
 13 35  1  0  0  0  0
 13 36  1  0  0  0  0
 14 20  1  0  0  0  0
 14 21  2  0  0  0  0
 16 23  1  0  0  0  0
 17 22  1  0  0  0  0
 18 24  1  0  0  0  0
 18 37  1  0  0  0  0
 18 38  1  0  0  0  0
 19 25  1  0  0  0  0
 19 39  1  0  0  0  0
 19 40  1  0  0  0  0
 20 27  2  0  0  0  0
 20 41  1  0  0  0  0
 21 26  1  0  0  0  0
 21 42  1  0  0  0  0
 22 43  1  0  0  0  0
 22 44  1  0  0  0  0
 22 45  1  0  0  0  0
 23 46  1  0  0  0  0
 23 47  1  0  0  0  0
 23 48  1  0  0  0  0
 24 29  1  0  0  0  0
 24 49  1  0  0  0  0
 24 50  1  0  0  0  0
 25 29  1  0  0  0  0
 25 51  1  0  0  0  0
 25 52  1  0  0  0  0
 26 28  2  0  0  0  0
 26 53  1  0  0  0  0
 27 28  1  0  0  0  0
 27 54  1  0  0  0  0
 28 55  1  0  0  0  0
 29 56  1  0  0  0  0
 29 57  1  0  0  0  0
M  CHG  1  11   1
M  END
>  <$CLUSTER>
226

>  <INDEX>
144971

$$$$
Asinex ASN 05317597
  MOE2020           3D

 45 47  0  0  0  0  0  0  0  0999 V2000
   -0.1230   -2.7460    0.6670 C   0  0  0  0  0  0  0  0  0  0  0  0
   -0.0590   -0.3440    0.3950 C   0  0  0  0  0  0  0  0  0  0  0  0
    0.0770   -0.6480    1.6690 N   0  0  0  0  0  0  0  0  0  0  0  0
   -0.2360   -1.6760   -0.6640 S   0  0  0  0  0  0  0  0  0  0  0  0
    0.0410   -2.0190    1.8250 C   0  0  0  0  0  0  0  0  0  0  0  0
   -0.2010   -4.1970    0.5030 C   0  0  0  0  0  0  0  0  0  0  0  0
   -0.0610    0.9630   -0.0630 N   0  0  0  0  0  0  0  0  0  0  0  0
   -0.0060    7.0840   -2.0130 N   0  3  0  0  0  0  0  0  0  0  0  0
   -0.1970    1.3870   -1.3780 C   0  0  0  0  0  0  0  0  0  0  0  0
   -0.3680   -4.6570   -0.7880 N   0  0  0  0  0  0  0  0  0  0  0  0
   -0.0520    5.6680   -1.8650 C   0  0  0  0  0  0  0  0  0  0  0  0
   -0.3280    7.8340   -1.0760 O   0  5  0  0  0  0  0  0  0  0  0  0
   -0.1470    2.8920   -1.4660 C   0  0  0  0  0  0  0  0  0  0  0  0
    0.3720    7.4930   -3.1240 O   0  0  0  0  0  0  0  0  0  0  0  0
   -0.1230   -4.9870    1.4440 O   0  0  0  0  0  0  0  0  0  0  0  0
   -0.3430    0.7070   -2.3890 O   0  0  0  0  0  0  0  0  0  0  0  0
    0.3070    4.8150   -2.9070 C   0  0  0  0  0  0  0  0  0  0  0  0
   -0.4660    5.1380   -0.6440 C   0  0  0  0  0  0  0  0  0  0  0  0
    0.2550    3.4310   -2.7290 C   0  0  0  0  0  0  0  0  0  0  0  0
   -0.5180    3.7530   -0.4600 C   0  0  0  0  0  0  0  0  0  0  0  0
   -0.4840   -5.9250   -1.3450 C   0  0  0  0  0  0  0  0  0  0  0  0
   -0.7260   -8.4490   -2.5560 C   0  0  0  0  0  0  0  0  0  0  0  0
    0.1820   -2.5480    3.2150 C   0  0  0  0  0  0  0  0  0  0  0  0
   -0.4420   -7.0880   -0.5710 C   0  0  0  0  0  0  0  0  0  0  0  0
   -0.6490   -6.0420   -2.7330 C   0  0  0  0  0  0  0  0  0  0  0  0
   -0.5620   -8.3440   -1.1770 C   0  0  0  0  0  0  0  0  0  0  0  0
   -0.7690   -7.2960   -3.3350 C   0  0  0  0  0  0  0  0  0  0  0  0
   -0.8330   -9.7350   -3.0250 O   0  0  0  0  0  0  0  0  0  0  0  0
   -1.0000   -9.8950   -4.4290 C   0  0  0  0  0  0  0  0  0  0  0  0
    0.0480    1.6850    0.6350 H   0  0  0  0  0  0  0  0  0  0  0  0
   -0.4160   -3.9150   -1.4720 H   0  0  0  0  0  0  0  0  0  0  0  0
    0.6260    5.2250   -3.8540 H   0  0  0  0  0  0  0  0  0  0  0  0
   -0.7470    5.7990    0.1620 H   0  0  0  0  0  0  0  0  0  0  0  0
    0.5170    2.7700   -3.5420 H   0  0  0  0  0  0  0  0  0  0  0  0
   -0.8540    3.3540    0.4850 H   0  0  0  0  0  0  0  0  0  0  0  0
    0.1370   -3.6370    3.1960 H   0  0  0  0  0  0  0  0  0  0  0  0
   -0.6270   -2.1620    3.8350 H   0  0  0  0  0  0  0  0  0  0  0  0
    1.1390   -2.2310    3.6290 H   0  0  0  0  0  0  0  0  0  0  0  0
   -0.3160   -7.0170    0.4990 H   0  0  0  0  0  0  0  0  0  0  0  0
   -0.6840   -5.1520   -3.3430 H   0  0  0  0  0  0  0  0  0  0  0  0
   -0.5270   -9.2370   -0.5710 H   0  0  0  0  0  0  0  0  0  0  0  0
   -0.8950   -7.3720   -4.4050 H   0  0  0  0  0  0  0  0  0  0  0  0
   -1.0710  -10.9560   -4.6680 H   0  0  0  0  0  0  0  0  0  0  0  0
   -0.1450   -9.4620   -4.9480 H   0  0  0  0  0  0  0  0  0  0  0  0
   -1.9120   -9.3890   -4.7460 H   0  0  0  0  0  0  0  0  0  0  0  0
  1  4  1  0  0  0  0
  1  5  2  0  0  0  0
  1  6  1  0  0  0  0
  2  3  2  0  0  0  0
  2  4  1  0  0  0  0
  2  7  1  0  0  0  0
  3  5  1  0  0  0  0
  5 23  1  0  0  0  0
  6 10  1  0  0  0  0
  6 15  2  0  0  0  0
  7  9  1  0  0  0  0
  7 30  1  0  0  0  0
  8 11  1  0  0  0  0
  8 12  1  0  0  0  0
  8 14  2  0  0  0  0
  9 13  1  0  0  0  0
  9 16  2  0  0  0  0
 10 21  1  0  0  0  0
 10 31  1  0  0  0  0
 11 17  2  0  0  0  0
 11 18  1  0  0  0  0
 13 19  2  0  0  0  0
 13 20  1  0  0  0  0
 17 19  1  0  0  0  0
 17 32  1  0  0  0  0
 18 20  2  0  0  0  0
 18 33  1  0  0  0  0
 19 34  1  0  0  0  0
 20 35  1  0  0  0  0
 21 24  2  0  0  0  0
 21 25  1  0  0  0  0
 22 26  2  0  0  0  0
 22 27  1  0  0  0  0
 22 28  1  0  0  0  0
 23 36  1  0  0  0  0
 23 37  1  0  0  0  0
 23 38  1  0  0  0  0
 24 26  1  0  0  0  0
 24 39  1  0  0  0  0
 25 27  2  0  0  0  0
 25 40  1  0  0  0  0
 26 41  1  0  0  0  0
 27 42  1  0  0  0  0
 28 29  1  0  0  0  0
 29 43  1  0  0  0  0
 29 44  1  0  0  0  0
 29 45  1  0  0  0  0
M  CHG  1   8   1
M  CHG  1  12  -1
M  END
>  <$CLUSTER>
227

>  <INDEX>
146043

$$$$
Asinex ASN 05343028
  MOE2020           3D

 43 45  0  0  0  0  0  0  0  0999 V2000
    0.5050    2.0520   -0.7350 S   0  0  0  0  0  0  0  0  0  0  0  0
   -0.8110   -4.4620    2.7210 O   0  0  0  0  0  0  0  0  0  0  0  0
   -1.6620   -3.5870    2.0960 C   0  0  0  0  0  0  0  0  0  0  0  0
   -2.9260   -3.8190    2.3890 N   0  0  0  0  0  0  0  0  0  0  0  0
   -1.6840   -5.2410    3.4160 C   0  0  0  0  0  0  0  0  0  0  0  0
   -2.9380   -4.9000    3.2500 N   0  0  0  0  0  0  0  0  0  0  0  0
    0.6050    0.4240   -1.2640 N   0  0  0  0  0  0  0  0  0  0  0  0
   -1.0630   -2.5590    1.2270 C   0  0  0  0  0  0  0  0  0  0  0  0
   -3.4560   -7.9360    4.0100 C   0  0  0  0  0  0  0  0  0  0  0  0
    1.0520    2.8960   -1.7810 O   0  0  0  0  0  0  0  0  0  0  0  0
   -0.7960    2.3370   -0.1630 O   0  0  0  0  0  0  0  0  0  0  0  0
   -1.0870   -6.5450    4.4040 S   0  0  0  0  0  0  0  0  0  0  0  0
   -4.4140   -7.1700    3.4380 N   0  0  0  0  0  0  0  0  0  0  0  0
   -3.2190   -9.0840    3.6500 O   0  0  0  0  0  0  0  0  0  0  0  0
    0.3180   -2.4830    1.0480 C   0  0  0  0  0  0  0  0  0  0  0  0
   -1.9010   -1.6540    0.5760 C   0  0  0  0  0  0  0  0  0  0  0  0
   -2.6260   -7.2170    5.0690 C   0  0  0  0  0  0  0  0  0  0  0  0
    0.0220   -0.5940   -0.4320 C   0  0  0  0  0  0  0  0  0  0  0  0
    1.6930    2.0340    0.5890 C   0  0  0  0  0  0  0  0  0  0  0  0
   -5.3680   -7.4380    2.4430 C   0  0  0  0  0  0  0  0  0  0  0  0
    0.8630   -1.5010    0.2200 C   0  0  0  0  0  0  0  0  0  0  0  0
   -1.3610   -0.6700   -0.2530 C   0  0  0  0  0  0  0  0  0  0  0  0
   -5.4430   -8.6760    1.7990 C   0  0  0  0  0  0  0  0  0  0  0  0
   -6.2710   -6.4290    2.0770 C   0  0  0  0  0  0  0  0  0  0  0  0
   -6.4050   -8.8980    0.8080 C   0  0  0  0  0  0  0  0  0  0  0  0
   -7.2300   -6.6530    1.0880 C   0  0  0  0  0  0  0  0  0  0  0  0
   -7.2980   -7.8890    0.4520 C   0  0  0  0  0  0  0  0  0  0  0  0
    1.0600    0.1870   -2.1340 H   0  0  0  0  0  0  0  0  0  0  0  0
   -4.4500   -6.2260    3.7950 H   0  0  0  0  0  0  0  0  0  0  0  0
    0.9660   -3.1850    1.5510 H   0  0  0  0  0  0  0  0  0  0  0  0
   -2.9700   -1.7150    0.7140 H   0  0  0  0  0  0  0  0  0  0  0  0
   -2.3840   -7.9240    5.8630 H   0  0  0  0  0  0  0  0  0  0  0  0
   -3.2170   -6.3980    5.4790 H   0  0  0  0  0  0  0  0  0  0  0  0
    2.6830    1.8210    0.1860 H   0  0  0  0  0  0  0  0  0  0  0  0
    1.4210    1.2630    1.3110 H   0  0  0  0  0  0  0  0  0  0  0  0
    1.7030    3.0060    1.0820 H   0  0  0  0  0  0  0  0  0  0  0  0
    1.9330   -1.4420    0.0830 H   0  0  0  0  0  0  0  0  0  0  0  0
   -2.0110    0.0310   -0.7550 H   0  0  0  0  0  0  0  0  0  0  0  0
   -4.7560   -9.4640    2.0670 H   0  0  0  0  0  0  0  0  0  0  0  0
   -6.2240   -5.4670    2.5660 H   0  0  0  0  0  0  0  0  0  0  0  0
   -6.4560   -9.8580    0.3150 H   0  0  0  0  0  0  0  0  0  0  0  0
   -7.9190   -5.8670    0.8160 H   0  0  0  0  0  0  0  0  0  0  0  0
   -8.0390   -8.0650   -0.3140 H   0  0  0  0  0  0  0  0  0  0  0  0
  1  7  1  0  0  0  0
  1 10  2  0  0  0  0
  1 11  2  0  0  0  0
  1 19  1  0  0  0  0
  2  3  1  0  0  0  0
  2  5  1  0  0  0  0
  3  4  2  0  0  0  0
  3  8  1  0  0  0  0
  4  6  1  0  0  0  0
  5  6  2  0  0  0  0
  5 12  1  0  0  0  0
  7 18  1  0  0  0  0
  7 28  1  0  0  0  0
  8 15  2  0  0  0  0
  8 16  1  0  0  0  0
  9 13  1  0  0  0  0
  9 14  2  0  0  0  0
  9 17  1  0  0  0  0
 12 17  1  0  0  0  0
 13 20  1  0  0  0  0
 13 29  1  0  0  0  0
 15 21  1  0  0  0  0
 15 30  1  0  0  0  0
 16 22  2  0  0  0  0
 16 31  1  0  0  0  0
 17 32  1  0  0  0  0
 17 33  1  0  0  0  0
 18 21  2  0  0  0  0
 18 22  1  0  0  0  0
 19 34  1  0  0  0  0
 19 35  1  0  0  0  0
 19 36  1  0  0  0  0
 20 23  2  0  0  0  0
 20 24  1  0  0  0  0
 21 37  1  0  0  0  0
 22 38  1  0  0  0  0
 23 25  1  0  0  0  0
 23 39  1  0  0  0  0
 24 26  2  0  0  0  0
 24 40  1  0  0  0  0
 25 27  2  0  0  0  0
 25 41  1  0  0  0  0
 26 27  1  0  0  0  0
 26 42  1  0  0  0  0
 27 43  1  0  0  0  0
M  END
>  <$CLUSTER>
228

>  <INDEX>
146110

$$$$
Asinex ASN 05555492
  MOE2020           3D

 63 67  0  0  1  0  0  0  0  0999 V2000
   -0.4660   -0.0990   -0.3730 C   0  0  0  0  0  0  0  0  0  0  0  0
    0.5560    0.5990    0.2170 N   0  0  0  0  0  0  0  0  0  0  0  0
    0.1180    1.5640   -1.6170 N   0  0  0  0  0  0  0  0  0  0  0  0
    0.9100    1.6370   -0.5580 N   0  0  0  0  0  0  0  0  0  0  0  0
   -0.7380    0.4950   -1.5210 N   0  0  0  0  0  0  0  0  0  0  0  0
   -1.1260   -1.3090    0.2000 C   0  0  3  0  0  0  0  0  0  0  0  0
   -0.5270   -2.5220   -0.3590 N   0  0  0  0  0  0  0  0  0  0  0  0
    1.5250   -4.1430   -1.7850 N   0  0  0  0  0  0  0  0  0  0  0  0
    1.2360    0.3610    1.4690 C   0  0  0  0  0  0  0  0  0  0  0  0
   -0.4670   -2.6820   -1.8130 C   0  0  0  0  0  0  0  0  0  0  0  0
    0.8130   -2.8370    0.2230 C   0  0  0  0  0  0  0  0  0  0  0  0
    1.4630   -4.1100   -0.3020 C   0  0  0  0  0  0  0  0  0  0  0  0
    0.1640   -3.9250   -2.3360 C   0  0  0  0  0  0  0  0  0  0  0  0
   -2.6270   -1.3080   -0.0870 C   0  0  0  0  0  0  0  0  0  0  0  0
    2.0750   -5.4220   -2.2530 C   0  0  0  0  0  0  0  0  0  0  0  0
    0.5740    1.0810    2.6300 C   0  0  0  0  0  0  0  0  0  0  0  0
   -3.1540   -1.5240   -1.3690 C   0  0  0  0  0  0  0  0  0  0  0  0
   -3.5390   -1.0130    0.9600 C   0  0  0  0  0  0  0  0  0  0  0  0
    2.5300   -5.3150   -3.7290 C   0  0  0  0  0  0  0  0  0  0  0  0
    1.2570   -6.6990   -2.0620 C   0  0  0  0  0  0  0  0  0  0  0  0
   -0.3040    0.4010    3.4860 C   0  0  0  0  0  0  0  0  0  0  0  0
    0.8120    2.4480    2.8450 C   0  0  0  0  0  0  0  0  0  0  0  0
   -4.9150   -0.9570    0.7180 C   0  0  0  0  0  0  0  0  0  0  0  0
   -4.5300   -1.4680   -1.6100 C   0  0  0  0  0  0  0  0  0  0  0  0
    3.1480   -6.5830   -4.2750 C   0  0  0  0  0  0  0  0  0  0  0  0
    1.8470   -7.9240   -2.5750 C   0  0  0  0  0  0  0  0  0  0  0  0
    0.2020    3.1140    3.9110 C   0  0  0  0  0  0  0  0  0  0  0  0
   -0.9140    1.0690    4.5520 C   0  0  0  0  0  0  0  0  0  0  0  0
   -5.4090   -1.1840   -0.5650 C   0  0  0  0  0  0  0  0  0  0  0  0
   -0.6590    2.4240    4.7650 C   0  0  0  0  0  0  0  0  0  0  0  0
    2.2400   -7.7880   -4.0430 C   0  0  0  0  0  0  0  0  0  0  0  0
   -0.9780   -1.2890    1.2800 H   0  0  0  0  0  0  0  0  0  0  0  0
    2.2650    0.7100    1.3810 H   0  0  0  0  0  0  0  0  0  0  0  0
    1.2320   -0.7100    1.6720 H   0  0  0  0  0  0  0  0  0  0  0  0
    0.0930   -1.8370   -2.2130 H   0  0  0  0  0  0  0  0  0  0  0  0
   -1.4900   -2.6510   -2.1890 H   0  0  0  0  0  0  0  0  0  0  0  0
    0.6970   -2.9370    1.3020 H   0  0  0  0  0  0  0  0  0  0  0  0
    1.4800   -2.0030    0.0050 H   0  0  0  0  0  0  0  0  0  0  0  0
    2.4770   -4.1740    0.0920 H   0  0  0  0  0  0  0  0  0  0  0  0
    0.8840   -4.9670    0.0430 H   0  0  0  0  0  0  0  0  0  0  0  0
   -0.4630   -4.7750   -2.0680 H   0  0  0  0  0  0  0  0  0  0  0  0
    0.2330   -3.8530   -3.4210 H   0  0  0  0  0  0  0  0  0  0  0  0
    2.9080   -5.5630   -1.5640 H   0  0  0  0  0  0  0  0  0  0  0  0
   -2.4820   -1.7380   -2.1870 H   0  0  0  0  0  0  0  0  0  0  0  0
   -3.1650   -0.8290    1.9560 H   0  0  0  0  0  0  0  0  0  0  0  0
    3.2660   -4.5150   -3.8040 H   0  0  0  0  0  0  0  0  0  0  0  0
    1.6610   -5.0670   -4.3390 H   0  0  0  0  0  0  0  0  0  0  0  0
    0.2990   -6.5570   -2.5620 H   0  0  0  0  0  0  0  0  0  0  0  0
    1.0930   -6.8320   -0.9930 H   0  0  0  0  0  0  0  0  0  0  0  0
   -0.5110   -0.6460    3.3210 H   0  0  0  0  0  0  0  0  0  0  0  0
    1.4710    2.9880    2.1820 H   0  0  0  0  0  0  0  0  0  0  0  0
   -5.5960   -0.7370    1.5270 H   0  0  0  0  0  0  0  0  0  0  0  0
   -4.9120   -1.6450   -2.6050 H   0  0  0  0  0  0  0  0  0  0  0  0
    4.1020   -6.7560   -3.7770 H   0  0  0  0  0  0  0  0  0  0  0  0
    3.3140   -6.4640   -5.3460 H   0  0  0  0  0  0  0  0  0  0  0  0
    1.1230   -8.7330   -2.4760 H   0  0  0  0  0  0  0  0  0  0  0  0
    2.7370   -8.1590   -1.9910 H   0  0  0  0  0  0  0  0  0  0  0  0
    0.3970    4.1640    4.0740 H   0  0  0  0  0  0  0  0  0  0  0  0
   -1.5830    0.5360    5.2110 H   0  0  0  0  0  0  0  0  0  0  0  0
   -6.4720   -1.1400   -0.7500 H   0  0  0  0  0  0  0  0  0  0  0  0
   -1.1280    2.9390    5.5910 H   0  0  0  0  0  0  0  0  0  0  0  0
    2.7650   -8.6910   -4.3530 H   0  0  0  0  0  0  0  0  0  0  0  0
    1.3360   -7.6700   -4.6410 H   0  0  0  0  0  0  0  0  0  0  0  0
  1  2  1  0  0  0  0
  1  5  2  0  0  0  0
  1  6  1  0  0  0  0
  2  4  1  0  0  0  0
  2  9  1  0  0  0  0
  3  4  2  0  0  0  0
  3  5  1  0  0  0  0
  6  7  1  0  0  0  0
  6 14  1  0  0  0  0
  6 32  1  0  0  0  0
  7 10  1  0  0  0  0
  7 11  1  0  0  0  0
  8 12  1  0  0  0  0
  8 13  1  0  0  0  0
  8 15  1  0  0  0  0
  9 16  1  0  0  0  0
  9 33  1  0  0  0  0
  9 34  1  0  0  0  0
 10 13  1  0  0  0  0
 10 35  1  0  0  0  0
 10 36  1  0  0  0  0
 11 12  1  0  0  0  0
 11 37  1  0  0  0  0
 11 38  1  0  0  0  0
 12 39  1  0  0  0  0
 12 40  1  0  0  0  0
 13 41  1  0  0  0  0
 13 42  1  0  0  0  0
 14 17  1  0  0  0  0
 14 18  2  0  0  0  0
 15 19  1  0  0  0  0
 15 20  1  0  0  0  0
 15 43  1  0  0  0  0
 16 21  1  0  0  0  0
 16 22  2  0  0  0  0
 17 24  2  0  0  0  0
 17 44  1  0  0  0  0
 18 23  1  0  0  0  0
 18 45  1  0  0  0  0
 19 25  1  0  0  0  0
 19 46  1  0  0  0  0
 19 47  1  0  0  0  0
 20 26  1  0  0  0  0
 20 48  1  0  0  0  0
 20 49  1  0  0  0  0
 21 28  2  0  0  0  0
 21 50  1  0  0  0  0
 22 27  1  0  0  0  0
 22 51  1  0  0  0  0
 23 29  2  0  0  0  0
 23 52  1  0  0  0  0
 24 29  1  0  0  0  0
 24 53  1  0  0  0  0
 25 31  1  0  0  0  0
 25 54  1  0  0  0  0
 25 55  1  0  0  0  0
 26 31  1  0  0  0  0
 26 56  1  0  0  0  0
 26 57  1  0  0  0  0
 27 30  2  0  0  0  0
 27 58  1  0  0  0  0
 28 30  1  0  0  0  0
 28 59  1  0  0  0  0
 29 60  1  0  0  0  0
 30 61  1  0  0  0  0
 31 62  1  0  0  0  0
 31 63  1  0  0  0  0
M  END
>  <$CLUSTER>
229

>  <INDEX>
148740

$$$$
Asinex ASN 05552356
  MOE2020           3D

 67 70  0  0  1  0  0  0  0  0999 V2000
   -0.1500   -0.7600   -0.6710 C   0  0  0  0  0  0  0  0  0  0  0  0
    0.6020    0.3110   -0.2290 N   0  0  0  0  0  0  0  0  0  0  0  0
    0.1550   -0.9720   -1.9390 N   0  0  0  0  0  0  0  0  0  0  0  0
    1.3760    0.7400   -1.2500 N   0  0  0  0  0  0  0  0  0  0  0  0
    1.0940   -0.0410   -2.2780 N   0  0  0  0  0  0  0  0  0  0  0  0
   -1.1380   -1.5610    0.1030 C   0  0  3  0  0  0  0  0  0  0  0  0
    0.4470   -5.5560   -0.8340 N   0  0  0  0  0  0  0  0  0  0  0  0
   -0.9340   -3.0300   -0.1090 N   0  3  0  0  0  0  0  0  0  0  0  0
    1.4060   -6.3540   -1.3080 C   0  0  0  0  0  0  0  0  0  0  0  0
    0.6790    0.9810    1.0780 C   0  0  0  0  0  0  0  0  0  0  0  0
   -2.5670   -1.2330   -0.3180 C   0  0  0  0  0  0  0  0  0  0  0  0
    2.0090   -6.1990   -2.5820 C   0  0  0  0  0  0  0  0  0  0  0  0
    0.3840   -5.1080    0.5680 C   0  0  0  0  0  0  0  0  0  0  0  0
   -0.7050   -5.0510   -1.6000 C   0  0  0  0  0  0  0  0  0  0  0  0
   -0.8600   -3.5660   -1.5170 C   0  0  0  0  0  0  0  0  0  0  0  0
    0.2490   -3.5840    0.7070 C   0  0  0  0  0  0  0  0  0  0  0  0
    1.8630   -7.4300   -0.5110 C   0  0  0  0  0  0  0  0  0  0  0  0
   -3.5680   -1.0190    0.6990 C   0  0  0  0  0  0  0  0  0  0  0  0
   -3.0160   -1.1530   -1.6460 C   0  0  0  0  0  0  0  0  0  0  0  0
    2.9750   -7.1270   -3.0230 C   0  0  0  0  0  0  0  0  0  0  0  0
    2.8330   -8.3310   -0.9550 C   0  0  0  0  0  0  0  0  0  0  0  0
   -5.2770   -0.6440   -0.9660 C   0  0  0  0  0  0  0  0  0  0  0  0
    3.3840   -8.1840   -2.2170 C   0  0  0  0  0  0  0  0  0  0  0  0
   -4.3400   -0.8590   -1.9720 C   0  0  0  0  0  0  0  0  0  0  0  0
   -4.8910   -0.7260    0.3700 C   0  0  0  0  0  0  0  0  0  0  0  0
   -6.6020   -0.3560   -1.1550 O   0  0  0  0  0  0  0  0  0  0  0  0
   -0.7120    1.4470    1.5500 C   0  0  0  0  0  0  0  0  0  0  0  0
    1.3170    0.0400    2.1170 C   0  0  0  0  0  0  0  0  0  0  0  0
    1.5680    2.2520    1.0110 C   0  0  0  0  0  0  0  0  0  0  0  0
    1.6960   -5.0520   -3.5090 C   0  0  0  0  0  0  0  0  0  0  0  0
    3.2740   -9.4500   -0.0680 C   0  0  0  0  0  0  0  0  0  0  0  0
   -7.0540   -0.2650   -2.5020 C   0  0  0  0  0  0  0  0  0  0  0  0
   -0.9850   -1.3060    1.1520 H   0  0  0  0  0  0  0  0  0  0  0  0
   -1.8200   -3.3750    0.2320 H   0  0  0  0  0  0  0  0  0  0  0  0
    1.2960   -5.4230    1.0740 H   0  0  0  0  0  0  0  0  0  0  0  0
   -0.4770   -5.5780    1.0440 H   0  0  0  0  0  0  0  0  0  0  0  0
   -1.6110   -5.5160   -1.2110 H   0  0  0  0  0  0  0  0  0  0  0  0
   -0.5740   -5.3280   -2.6460 H   0  0  0  0  0  0  0  0  0  0  0  0
   -0.0060   -3.1050   -2.0140 H   0  0  0  0  0  0  0  0  0  0  0  0
   -1.7770   -3.2880   -2.0370 H   0  0  0  0  0  0  0  0  0  0  0  0
    0.0960   -3.3390    1.7580 H   0  0  0  0  0  0  0  0  0  0  0  0
    1.1680   -3.1160    0.3550 H   0  0  0  0  0  0  0  0  0  0  0  0
    1.4460   -7.5590    0.4770 H   0  0  0  0  0  0  0  0  0  0  0  0
   -3.2860   -1.0870    1.7390 H   0  0  0  0  0  0  0  0  0  0  0  0
   -2.3100   -1.3260   -2.4450 H   0  0  0  0  0  0  0  0  0  0  0  0
    3.4060   -7.0150   -4.0070 H   0  0  0  0  0  0  0  0  0  0  0  0
    4.1250   -8.8840   -2.5720 H   0  0  0  0  0  0  0  0  0  0  0  0
   -4.6390   -0.7980   -3.0080 H   0  0  0  0  0  0  0  0  0  0  0  0
   -5.6180   -0.5620    1.1520 H   0  0  0  0  0  0  0  0  0  0  0  0
   -1.3800    0.5880    1.6150 H   0  0  0  0  0  0  0  0  0  0  0  0
   -1.1150    2.1680    0.8380 H   0  0  0  0  0  0  0  0  0  0  0  0
   -0.6250    1.9150    2.5310 H   0  0  0  0  0  0  0  0  0  0  0  0
    0.7220   -0.8700    2.1970 H   0  0  0  0  0  0  0  0  0  0  0  0
    1.3510    0.5380    3.0860 H   0  0  0  0  0  0  0  0  0  0  0  0
    2.3300   -0.2140    1.8040 H   0  0  0  0  0  0  0  0  0  0  0  0
    1.1510    2.9490    0.2840 H   0  0  0  0  0  0  0  0  0  0  0  0
    2.5780    1.9740    0.7100 H   0  0  0  0  0  0  0  0  0  0  0  0
    1.5990    2.7260    1.9920 H   0  0  0  0  0  0  0  0  0  0  0  0
    0.9400   -4.4130   -3.0540 H   0  0  0  0  0  0  0  0  0  0  0  0
    1.3200   -5.4420   -4.4550 H   0  0  0  0  0  0  0  0  0  0  0  0
    2.6020   -4.4720   -3.6890 H   0  0  0  0  0  0  0  0  0  0  0  0
    2.7320   -9.4000    0.8760 H   0  0  0  0  0  0  0  0  0  0  0  0
    4.3440   -9.3630    0.1220 H   0  0  0  0  0  0  0  0  0  0  0  0
    3.0680  -10.4030   -0.5560 H   0  0  0  0  0  0  0  0  0  0  0  0
   -8.1190   -0.0330   -2.5130 H   0  0  0  0  0  0  0  0  0  0  0  0
   -6.8840   -1.2160   -3.0070 H   0  0  0  0  0  0  0  0  0  0  0  0
   -6.5050    0.5230   -3.0170 H   0  0  0  0  0  0  0  0  0  0  0  0
  1  2  1  0  0  0  0
  1  3  2  0  0  0  0
  1  6  1  0  0  0  0
  2  4  1  0  0  0  0
  2 10  1  0  0  0  0
  3  5  1  0  0  0  0
  4  5  2  0  0  0  0
  6  8  1  0  0  0  0
  6 11  1  0  0  0  0
  6 33  1  0  0  0  0
  7  9  1  0  0  0  0
  7 13  1  0  0  0  0
  7 14  1  0  0  0  0
  8 15  1  0  0  0  0
  8 16  1  0  0  0  0
  8 34  1  0  0  0  0
  9 12  2  0  0  0  0
  9 17  1  0  0  0  0
 10 27  1  0  0  0  0
 10 28  1  0  0  0  0
 10 29  1  0  0  0  0
 11 18  1  0  0  0  0
 11 19  2  0  0  0  0
 12 20  1  0  0  0  0
 12 30  1  0  0  0  0
 13 16  1  0  0  0  0
 13 35  1  0  0  0  0
 13 36  1  0  0  0  0
 14 15  1  0  0  0  0
 14 37  1  0  0  0  0
 14 38  1  0  0  0  0
 15 39  1  0  0  0  0
 15 40  1  0  0  0  0
 16 41  1  0  0  0  0
 16 42  1  0  0  0  0
 17 21  2  0  0  0  0
 17 43  1  0  0  0  0
 18 25  2  0  0  0  0
 18 44  1  0  0  0  0
 19 24  1  0  0  0  0
 19 45  1  0  0  0  0
 20 23  2  0  0  0  0
 20 46  1  0  0  0  0
 21 23  1  0  0  0  0
 21 31  1  0  0  0  0
 22 24  2  0  0  0  0
 22 25  1  0  0  0  0
 22 26  1  0  0  0  0
 23 47  1  0  0  0  0
 24 48  1  0  0  0  0
 25 49  1  0  0  0  0
 26 32  1  0  0  0  0
 27 50  1  0  0  0  0
 27 51  1  0  0  0  0
 27 52  1  0  0  0  0
 28 53  1  0  0  0  0
 28 54  1  0  0  0  0
 28 55  1  0  0  0  0
 29 56  1  0  0  0  0
 29 57  1  0  0  0  0
 29 58  1  0  0  0  0
 30 59  1  0  0  0  0
 30 60  1  0  0  0  0
 30 61  1  0  0  0  0
 31 62  1  0  0  0  0
 31 63  1  0  0  0  0
 31 64  1  0  0  0  0
 32 65  1  0  0  0  0
 32 66  1  0  0  0  0
 32 67  1  0  0  0  0
M  CHG  1   8   1
M  END
>  <$CLUSTER>
230

>  <INDEX>
148154

$$$$
Asinex ASN 05556807
  MOE2020           3D

 62 66  0  0  1  0  0  0  0  0999 V2000
    0.3540   -0.1260    0.4020 C   0  0  0  0  0  0  0  0  0  0  0  0
   -0.0470   -0.4570   -0.8660 N   0  0  0  0  0  0  0  0  0  0  0  0
    0.4150   -2.2650    0.1380 N   0  0  0  0  0  0  0  0  0  0  0  0
   -0.0120   -1.7910   -1.0230 N   0  0  0  0  0  0  0  0  0  0  0  0
    0.6480   -1.2480    1.0320 N   0  0  0  0  0  0  0  0  0  0  0  0
    0.4390    1.2570    0.9440 C   0  0  3  0  0  0  0  0  0  0  0  0
    0.1020    1.3040    2.4000 N   0  3  0  0  0  0  0  0  0  0  0  0
    0.1830    1.9960    5.2780 N   0  0  0  0  0  0  0  0  0  0  0  0
   -0.4650    0.3940   -1.9550 C   0  0  0  0  0  0  0  0  0  0  0  0
    1.0090    0.6180    3.3880 C   0  0  0  0  0  0  0  0  0  0  0  0
   -0.3190    2.6650    2.9200 C   0  0  0  0  0  0  0  0  0  0  0  0
   -0.7800    2.6460    4.3730 C   0  0  0  0  0  0  0  0  0  0  0  0
    0.5230    0.6440    4.8020 C   0  0  0  0  0  0  0  0  0  0  0  0
    0.6840    2.5590    6.3840 C   0  0  0  0  0  0  0  0  0  0  0  0
    1.8380    1.8350    0.7730 C   0  0  0  0  0  0  0  0  0  0  0  0
   -1.9670    0.6180   -1.9670 C   0  0  0  0  0  0  0  0  0  0  0  0
   -4.7460    1.0160   -1.9790 C   0  0  0  0  0  0  0  0  0  0  0  0
   -2.5200    1.7880   -1.4250 C   0  0  0  0  0  0  0  0  0  0  0  0
   -2.8250   -0.3580   -2.4970 C   0  0  0  0  0  0  0  0  0  0  0  0
   -4.2070   -0.1570   -2.5070 C   0  0  0  0  0  0  0  0  0  0  0  0
   -3.9040    1.9870   -1.4350 C   0  0  0  0  0  0  0  0  0  0  0  0
   -6.0840    1.3270   -1.9250 O   0  0  0  0  0  0  0  0  0  0  0  0
    0.3210    3.8590    6.7910 C   0  0  0  0  0  0  0  0  0  0  0  0
    1.6050    1.8870    7.2150 C   0  0  0  0  0  0  0  0  0  0  0  0
    1.9950    3.1770    0.2690 C   0  0  0  0  0  0  0  0  0  0  0  0
    3.0270    1.1660    1.1130 C   0  0  0  0  0  0  0  0  0  0  0  0
   -6.9890    0.3680   -2.4610 C   0  0  0  0  0  0  0  0  0  0  0  0
    0.8430    4.4510    7.9490 C   0  0  0  0  0  0  0  0  0  0  0  0
    2.1300    2.4740    8.3740 C   0  0  0  0  0  0  0  0  0  0  0  0
    3.2540    3.7550    0.1080 C   0  0  0  0  0  0  0  0  0  0  0  0
    4.2850    1.7470    0.9500 C   0  0  0  0  0  0  0  0  0  0  0  0
    1.7490    3.7580    8.7410 C   0  0  0  0  0  0  0  0  0  0  0  0
    4.3990    3.0390    0.4470 C   0  0  0  0  0  0  0  0  0  0  0  0
   -0.2830    1.8460    0.3790 H   0  0  0  0  0  0  0  0  0  0  0  0
   -0.7070    0.7000    2.3630 H   0  0  0  0  0  0  0  0  0  0  0  0
   -0.1720   -0.0720   -2.8960 H   0  0  0  0  0  0  0  0  0  0  0  0
    0.0330    1.3590   -1.8570 H   0  0  0  0  0  0  0  0  0  0  0  0
    1.9820    1.1090    3.3540 H   0  0  0  0  0  0  0  0  0  0  0  0
    1.1160   -0.4230    3.0850 H   0  0  0  0  0  0  0  0  0  0  0  0
   -1.1390    3.0310    2.3030 H   0  0  0  0  0  0  0  0  0  0  0  0
    0.5300    3.3440    2.8360 H   0  0  0  0  0  0  0  0  0  0  0  0
   -0.9270    3.6740    4.7040 H   0  0  0  0  0  0  0  0  0  0  0  0
   -1.7260    2.1080    4.4290 H   0  0  0  0  0  0  0  0  0  0  0  0
   -0.3670    0.0180    4.8730 H   0  0  0  0  0  0  0  0  0  0  0  0
    1.3050    0.2380    5.4440 H   0  0  0  0  0  0  0  0  0  0  0  0
   -1.8730    2.5390   -0.9970 H   0  0  0  0  0  0  0  0  0  0  0  0
   -2.4130   -1.2710   -2.9000 H   0  0  0  0  0  0  0  0  0  0  0  0
   -4.8590   -0.9100   -2.9240 H   0  0  0  0  0  0  0  0  0  0  0  0
   -4.3220    2.8930   -1.0210 H   0  0  0  0  0  0  0  0  0  0  0  0
   -0.3820    4.4170    6.1910 H   0  0  0  0  0  0  0  0  0  0  0  0
    1.9160    0.8870    6.9490 H   0  0  0  0  0  0  0  0  0  0  0  0
    1.1160    3.7490    0.0100 H   0  0  0  0  0  0  0  0  0  0  0  0
    2.9640    0.1660    1.5150 H   0  0  0  0  0  0  0  0  0  0  0  0
   -8.0100    0.7340   -2.3570 H   0  0  0  0  0  0  0  0  0  0  0  0
   -6.8830   -0.5730   -1.9210 H   0  0  0  0  0  0  0  0  0  0  0  0
   -6.7660    0.2080   -3.5160 H   0  0  0  0  0  0  0  0  0  0  0  0
    0.5400    5.4500    8.2260 H   0  0  0  0  0  0  0  0  0  0  0  0
    2.8330    1.9260    8.9840 H   0  0  0  0  0  0  0  0  0  0  0  0
    3.3410    4.7590   -0.2800 H   0  0  0  0  0  0  0  0  0  0  0  0
    5.1730    1.1920    1.2150 H   0  0  0  0  0  0  0  0  0  0  0  0
    2.1530    4.2130    9.6330 H   0  0  0  0  0  0  0  0  0  0  0  0
    5.3740    3.4860    0.3200 H   0  0  0  0  0  0  0  0  0  0  0  0
  1  2  1  0  0  0  0
  1  5  2  0  0  0  0
  1  6  1  0  0  0  0
  2  4  1  0  0  0  0
  2  9  1  0  0  0  0
  3  4  2  0  0  0  0
  3  5  1  0  0  0  0
  6  7  1  0  0  0  0
  6 15  1  0  0  0  0
  6 34  1  0  0  0  0
  7 10  1  0  0  0  0
  7 11  1  0  0  0  0
  7 35  1  0  0  0  0
  8 12  1  0  0  0  0
  8 13  1  0  0  0  0
  8 14  1  0  0  0  0
  9 16  1  0  0  0  0
  9 36  1  0  0  0  0
  9 37  1  0  0  0  0
 10 13  1  0  0  0  0
 10 38  1  0  0  0  0
 10 39  1  0  0  0  0
 11 12  1  0  0  0  0
 11 40  1  0  0  0  0
 11 41  1  0  0  0  0
 12 42  1  0  0  0  0
 12 43  1  0  0  0  0
 13 44  1  0  0  0  0
 13 45  1  0  0  0  0
 14 23  2  0  0  0  0
 14 24  1  0  0  0  0
 15 25  2  0  0  0  0
 15 26  1  0  0  0  0
 16 18  1  0  0  0  0
 16 19  2  0  0  0  0
 17 20  2  0  0  0  0
 17 21  1  0  0  0  0
 17 22  1  0  0  0  0
 18 21  2  0  0  0  0
 18 46  1  0  0  0  0
 19 20  1  0  0  0  0
 19 47  1  0  0  0  0
 20 48  1  0  0  0  0
 21 49  1  0  0  0  0
 22 27  1  0  0  0  0
 23 28  1  0  0  0  0
 23 50  1  0  0  0  0
 24 29  2  0  0  0  0
 24 51  1  0  0  0  0
 25 30  1  0  0  0  0
 25 52  1  0  0  0  0
 26 31  2  0  0  0  0
 26 53  1  0  0  0  0
 27 54  1  0  0  0  0
 27 55  1  0  0  0  0
 27 56  1  0  0  0  0
 28 32  2  0  0  0  0
 28 57  1  0  0  0  0
 29 32  1  0  0  0  0
 29 58  1  0  0  0  0
 30 33  2  0  0  0  0
 30 59  1  0  0  0  0
 31 33  1  0  0  0  0
 31 60  1  0  0  0  0
 32 61  1  0  0  0  0
 33 62  1  0  0  0  0
M  CHG  1   7   1
M  END
>  <$CLUSTER>
231

>  <INDEX>
148885

$$$$
Asinex ASN 05588575
  MOE2020           3D

 48 51  0  0  0  0  0  0  0  0999 V2000
    1.0060    0.3720   -0.2680 N   0  0  0  0  0  0  0  0  0  0  0  0
    2.5930   -0.4890   -4.6220 C   0  0  0  0  0  0  0  0  0  0  0  0
    2.6150   -0.1010   -3.2690 C   0  0  0  0  0  0  0  0  0  0  0  0
    1.9100   -0.7580   -2.3170 N   0  0  0  0  0  0  0  0  0  0  0  0
   -0.3740   -1.7900    1.0050 N   0  0  0  0  0  0  0  0  0  0  0  0
   -0.4290    0.3330   -0.2160 C   0  0  0  0  0  0  0  0  0  0  0  0
    1.7330    1.5030   -0.6750 C   0  0  0  0  0  0  0  0  0  0  0  0
    0.9800   -1.9070    0.9570 C   0  0  0  0  0  0  0  0  0  0  0  0
   -1.0830   -0.7420    0.4170 C   0  0  0  0  0  0  0  0  0  0  0  0
    3.3350    0.2000   -5.6350 C   0  0  0  0  0  0  0  0  0  0  0  0
    1.7150   -0.8600    0.1320 C   0  0  0  0  0  0  0  0  0  0  0  0
    1.0870   -2.2740   -4.0080 C   0  0  0  0  0  0  0  0  0  0  0  0
    1.1660   -1.8230   -2.7000 C   0  0  0  0  0  0  0  0  0  0  0  0
    1.8130   -1.5950   -4.9830 C   0  0  0  0  0  0  0  0  0  0  0  0
    3.9270    0.7420   -6.4780 N   0  0  0  0  0  0  0  0  0  0  0  0
    3.5990    1.3220   -2.7140 S   0  0  0  0  0  0  0  0  0  0  0  0
    3.2140    1.2970   -0.9350 C   0  0  0  0  0  0  0  0  0  0  0  0
    0.2970   -3.3860   -4.3510 C   0  0  0  0  0  0  0  0  0  0  0  0
    1.5670   -2.8540    1.4800 O   0  0  0  0  0  0  0  0  0  0  0  0
    1.2740    2.6360   -0.8140 O   0  0  0  0  0  0  0  0  0  0  0  0
    0.4270   -2.5160   -1.7130 C   0  0  0  0  0  0  0  0  0  0  0  0
   -0.4250   -4.0570   -3.3650 C   0  0  0  0  0  0  0  0  0  0  0  0
   -0.3600   -3.6210   -2.0450 C   0  0  0  0  0  0  0  0  0  0  0  0
   -1.2360    1.3270   -0.7940 C   0  0  0  0  0  0  0  0  0  0  0  0
   -1.1560   -5.1230   -3.8200 O   0  0  0  0  0  0  0  0  0  0  0  0
   -2.4810   -0.7960    0.4980 C   0  0  0  0  0  0  0  0  0  0  0  0
   -1.9160   -5.8470   -2.8530 C   0  0  0  0  0  0  0  0  0  0  0  0
   -2.6310    1.2690   -0.7200 C   0  0  0  0  0  0  0  0  0  0  0  0
   -3.2540    0.2110   -0.0690 C   0  0  0  0  0  0  0  0  0  0  0  0
   -2.6390   -6.9720   -3.5740 C   0  0  0  0  0  0  0  0  0  0  0  0
   -0.8960   -2.5030    1.4940 H   0  0  0  0  0  0  0  0  0  0  0  0
    2.5860   -0.5520    0.7110 H   0  0  0  0  0  0  0  0  0  0  0  0
    2.0430   -1.3500   -0.7850 H   0  0  0  0  0  0  0  0  0  0  0  0
    1.7750   -1.9190   -6.0120 H   0  0  0  0  0  0  0  0  0  0  0  0
    3.5140    0.3330   -0.5230 H   0  0  0  0  0  0  0  0  0  0  0  0
    3.7730    2.0930   -0.4420 H   0  0  0  0  0  0  0  0  0  0  0  0
    0.2500   -3.7200   -5.3770 H   0  0  0  0  0  0  0  0  0  0  0  0
    0.4720   -2.1850   -0.6860 H   0  0  0  0  0  0  0  0  0  0  0  0
   -0.9180   -4.1370   -1.2780 H   0  0  0  0  0  0  0  0  0  0  0  0
   -0.7680    2.1540   -1.3070 H   0  0  0  0  0  0  0  0  0  0  0  0
   -2.9590   -1.6220    1.0020 H   0  0  0  0  0  0  0  0  0  0  0  0
   -2.6410   -5.1840   -2.3800 H   0  0  0  0  0  0  0  0  0  0  0  0
   -1.2520   -6.2600   -2.0940 H   0  0  0  0  0  0  0  0  0  0  0  0
   -3.2270    2.0490   -1.1700 H   0  0  0  0  0  0  0  0  0  0  0  0
   -4.3310    0.1710   -0.0040 H   0  0  0  0  0  0  0  0  0  0  0  0
   -3.3010   -6.5520   -4.3310 H   0  0  0  0  0  0  0  0  0  0  0  0
   -3.2260   -7.5460   -2.8560 H   0  0  0  0  0  0  0  0  0  0  0  0
   -1.9090   -7.6260   -4.0520 H   0  0  0  0  0  0  0  0  0  0  0  0
  1  6  1  0  0  0  0
  1  7  1  0  0  0  0
  1 11  1  0  0  0  0
  2  3  1  0  0  0  0
  2 10  1  0  0  0  0
  2 14  2  0  0  0  0
  3  4  2  0  0  0  0
  3 16  1  0  0  0  0
  4 13  1  0  0  0  0
  5  8  1  0  0  0  0
  5  9  1  0  0  0  0
  5 31  1  0  0  0  0
  6  9  2  0  0  0  0
  6 24  1  0  0  0  0
  7 17  1  0  0  0  0
  7 20  2  0  0  0  0
  8 11  1  0  0  0  0
  8 19  2  0  0  0  0
  9 26  1  0  0  0  0
 10 15  3  0  0  0  0
 11 32  1  0  0  0  0
 11 33  1  0  0  0  0
 12 13  2  0  0  0  0
 12 14  1  0  0  0  0
 12 18  1  0  0  0  0
 13 21  1  0  0  0  0
 14 34  1  0  0  0  0
 16 17  1  0  0  0  0
 17 35  1  0  0  0  0
 17 36  1  0  0  0  0
 18 22  2  0  0  0  0
 18 37  1  0  0  0  0
 21 23  2  0  0  0  0
 21 38  1  0  0  0  0
 22 23  1  0  0  0  0
 22 25  1  0  0  0  0
 23 39  1  0  0  0  0
 24 28  2  0  0  0  0
 24 40  1  0  0  0  0
 25 27  1  0  0  0  0
 26 29  2  0  0  0  0
 26 41  1  0  0  0  0
 27 30  1  0  0  0  0
 27 42  1  0  0  0  0
 27 43  1  0  0  0  0
 28 29  1  0  0  0  0
 28 44  1  0  0  0  0
 29 45  1  0  0  0  0
 30 46  1  0  0  0  0
 30 47  1  0  0  0  0
 30 48  1  0  0  0  0
M  END
>  <$CLUSTER>
232

>  <INDEX>
149658

$$$$
Asinex ASN 05670151
  MOE2020           3D

 46 47  0  0  0  0  0  0  0  0999 V2000
    0.3600   -0.3610    0.3840 C   0  0  0  0  0  0  0  0  0  0  0  0
    1.8540   -0.1740    1.2230 S   0  0  0  0  0  0  0  0  0  0  0  0
   -0.0480   -1.6160    0.3390 N   0  0  0  0  0  0  0  0  0  0  0  0
    1.8510   -1.8640    1.4780 C   0  0  0  0  0  0  0  0  0  0  0  0
    0.8140   -2.4900    0.9720 N   0  0  0  0  0  0  0  0  0  0  0  0
   -0.2880    0.7710   -0.1640 N   0  0  0  0  0  0  0  0  0  0  0  0
   -1.5080    0.5070   -0.8280 C   0  0  0  0  0  0  0  0  0  0  0  0
    2.9440   -2.5590    2.2170 C   0  0  0  0  0  0  0  0  0  0  0  0
   -2.0390   -0.6010   -0.9460 O   0  0  0  0  0  0  0  0  0  0  0  0
    4.0490   -1.8900    2.7700 C   0  0  0  0  0  0  0  0  0  0  0  0
    2.8780   -3.9560    2.3770 C   0  0  0  0  0  0  0  0  0  0  0  0
    0.2660    2.1390   -0.0660 C   0  0  0  0  0  0  0  0  0  0  0  0
    4.9610   -3.9720    3.6000 C   0  0  0  0  0  0  0  0  0  0  0  0
    5.0470   -2.5920    3.4550 C   0  0  0  0  0  0  0  0  0  0  0  0
    3.8760   -4.6540    3.0610 C   0  0  0  0  0  0  0  0  0  0  0  0
    6.0000   -4.5410    4.2910 O   0  0  0  0  0  0  0  0  0  0  0  0
   -2.2220    1.6950   -1.4340 C   0  0  0  0  0  0  0  0  0  0  0  0
    5.9580   -5.9530    4.4650 C   0  0  0  0  0  0  0  0  0  0  0  0
    1.2530    2.4410   -1.1870 C   0  0  0  0  0  0  0  0  0  0  0  0
   -3.4890    1.4250   -2.1230 C   0  0  0  0  0  0  0  0  0  0  0  0
    1.8220    3.8300   -1.0750 C   0  0  0  0  0  0  0  0  0  0  0  0
   -4.1600    2.6360   -2.7080 C   0  0  0  0  0  0  0  0  0  0  0  0
    2.8100    4.1340   -2.1970 C   0  0  0  0  0  0  0  0  0  0  0  0
    4.1290   -0.8180    2.6650 H   0  0  0  0  0  0  0  0  0  0  0  0
    2.0400   -4.4980    1.9630 H   0  0  0  0  0  0  0  0  0  0  0  0
    0.7780    2.2430    0.8900 H   0  0  0  0  0  0  0  0  0  0  0  0
   -0.5540    2.8550   -0.1180 H   0  0  0  0  0  0  0  0  0  0  0  0
    5.8880   -2.0590    3.8730 H   0  0  0  0  0  0  0  0  0  0  0  0
    3.8050   -5.7260    3.1710 H   0  0  0  0  0  0  0  0  0  0  0  0
   -1.5460    2.1530   -2.1550 H   0  0  0  0  0  0  0  0  0  0  0  0
   -2.4280    2.4010   -0.6300 H   0  0  0  0  0  0  0  0  0  0  0  0
    6.8350   -6.2760    5.0260 H   0  0  0  0  0  0  0  0  0  0  0  0
    5.9510   -6.4390    3.4890 H   0  0  0  0  0  0  0  0  0  0  0  0
    5.0560   -6.2250    5.0130 H   0  0  0  0  0  0  0  0  0  0  0  0
    0.7390    2.3470   -2.1440 H   0  0  0  0  0  0  0  0  0  0  0  0
    2.0700    1.7210   -1.1410 H   0  0  0  0  0  0  0  0  0  0  0  0
   -4.1740    0.9710   -1.4070 H   0  0  0  0  0  0  0  0  0  0  0  0
   -3.2910    0.7230   -2.9330 H   0  0  0  0  0  0  0  0  0  0  0  0
    2.3360    3.9240   -0.1180 H   0  0  0  0  0  0  0  0  0  0  0  0
    1.0050    4.5500   -1.1210 H   0  0  0  0  0  0  0  0  0  0  0  0
   -4.3680    3.3550   -1.9150 H   0  0  0  0  0  0  0  0  0  0  0  0
   -5.0950    2.3390   -3.1840 H   0  0  0  0  0  0  0  0  0  0  0  0
   -3.5040    3.0920   -3.4490 H   0  0  0  0  0  0  0  0  0  0  0  0
    3.6320    3.4190   -2.1610 H   0  0  0  0  0  0  0  0  0  0  0  0
    3.2010    5.1440   -2.0730 H   0  0  0  0  0  0  0  0  0  0  0  0
    2.3030    4.0560   -3.1590 H   0  0  0  0  0  0  0  0  0  0  0  0
  1  2  1  0  0  0  0
  1  3  2  0  0  0  0
  1  6  1  0  0  0  0
  2  4  1  0  0  0  0
  3  5  1  0  0  0  0
  4  5  2  0  0  0  0
  4  8  1  0  0  0  0
  6  7  1  0  0  0  0
  6 12  1  0  0  0  0
  7  9  2  0  0  0  0
  7 17  1  0  0  0  0
  8 10  2  0  0  0  0
  8 11  1  0  0  0  0
 10 14  1  0  0  0  0
 10 24  1  0  0  0  0
 11 15  2  0  0  0  0
 11 25  1  0  0  0  0
 12 19  1  0  0  0  0
 12 26  1  0  0  0  0
 12 27  1  0  0  0  0
 13 14  2  0  0  0  0
 13 15  1  0  0  0  0
 13 16  1  0  0  0  0
 14 28  1  0  0  0  0
 15 29  1  0  0  0  0
 16 18  1  0  0  0  0
 17 20  1  0  0  0  0
 17 30  1  0  0  0  0
 17 31  1  0  0  0  0
 18 32  1  0  0  0  0
 18 33  1  0  0  0  0
 18 34  1  0  0  0  0
 19 21  1  0  0  0  0
 19 35  1  0  0  0  0
 19 36  1  0  0  0  0
 20 22  1  0  0  0  0
 20 37  1  0  0  0  0
 20 38  1  0  0  0  0
 21 23  1  0  0  0  0
 21 39  1  0  0  0  0
 21 40  1  0  0  0  0
 22 41  1  0  0  0  0
 22 42  1  0  0  0  0
 22 43  1  0  0  0  0
 23 44  1  0  0  0  0
 23 45  1  0  0  0  0
 23 46  1  0  0  0  0
M  END
>  <$CLUSTER>
233

>  <INDEX>
150352

$$$$
Asinex ASN 05812854
  MOE2020           3D

 47 50  0  0  0  0  0  0  0  0999 V2000
   -3.4570    0.3850    2.8240 C   0  0  0  0  0  0  0  0  0  0  0  0
   -2.7430    0.4150    1.6660 N   0  0  0  0  0  0  0  0  0  0  0  0
   -1.6600    1.2410    1.4910 C   0  0  0  0  0  0  0  0  0  0  0  0
   -1.2110    2.0400    2.4080 N   0  0  0  0  0  0  0  0  0  0  0  0
   -2.9700    1.2930    3.8670 C   0  0  0  0  0  0  0  0  0  0  0  0
   -0.1810   -0.1080    0.0310 N   0  0  0  0  0  0  0  0  0  0  0  0
    1.1870   -0.1980    0.2990 C   0  0  0  0  0  0  0  0  0  0  0  0
   -1.9010    2.0440    3.5950 C   0  0  0  0  0  0  0  0  0  0  0  0
   -0.9710    1.1270    0.1400 C   0  0  0  0  0  0  0  0  0  0  0  0
    1.8770    1.0660    0.7510 C   0  0  0  0  0  0  0  0  0  0  0  0
   -0.8980   -1.3140   -0.3950 C   0  0  0  0  0  0  0  0  0  0  0  0
   -4.4370   -0.3290    3.0180 O   0  0  0  0  0  0  0  0  0  0  0  0
    1.8450   -1.2350    0.1760 O   0  0  0  0  0  0  0  0  0  0  0  0
    3.0280    0.9340    1.5110 C   0  0  0  0  0  0  0  0  0  0  0  0
    1.3780    2.3190    0.4110 C   0  0  0  0  0  0  0  0  0  0  0  0
   -0.9040   -1.4580   -1.9090 C   0  0  0  0  0  0  0  0  0  0  0  0
    3.2060    3.3420    1.6230 C   0  0  0  0  0  0  0  0  0  0  0  0
   -0.9230   -1.7250   -4.7010 C   0  0  0  0  0  0  0  0  0  0  0  0
    3.6950    2.0790    1.9500 C   0  0  0  0  0  0  0  0  0  0  0  0
    2.0510    3.4620    0.8520 C   0  0  0  0  0  0  0  0  0  0  0  0
    4.0290    4.7280    2.1690 Cl  0  0  0  0  0  0  0  0  0  0  0  0
   -1.0050   -1.8010   -6.0290 F   0  0  0  0  0  0  0  0  0  0  0  0
   -3.6390    1.3420    5.1250 C   0  0  0  0  0  0  0  0  0  0  0  0
    0.0090   -2.3090   -2.5450 C   0  0  0  0  0  0  0  0  0  0  0  0
   -1.8150   -0.7280   -2.6850 C   0  0  0  0  0  0  0  0  0  0  0  0
   -0.0040   -2.4440   -3.9370 C   0  0  0  0  0  0  0  0  0  0  0  0
   -1.8270   -0.8650   -4.0760 C   0  0  0  0  0  0  0  0  0  0  0  0
   -1.4060    2.9410    4.6120 C   0  0  0  0  0  0  0  0  0  0  0  0
   -3.1620    2.2080    6.1080 C   0  0  0  0  0  0  0  0  0  0  0  0
   -2.0470    3.0070    5.8530 C   0  0  0  0  0  0  0  0  0  0  0  0
   -3.0200   -0.1920    0.9080 H   0  0  0  0  0  0  0  0  0  0  0  0
   -0.3080    1.9820    0.0090 H   0  0  0  0  0  0  0  0  0  0  0  0
   -1.7290    1.1310   -0.6440 H   0  0  0  0  0  0  0  0  0  0  0  0
   -1.9270   -1.2570   -0.0410 H   0  0  0  0  0  0  0  0  0  0  0  0
   -0.4120   -2.1870    0.0410 H   0  0  0  0  0  0  0  0  0  0  0  0
    3.4060   -0.0460    1.7620 H   0  0  0  0  0  0  0  0  0  0  0  0
    0.4820    2.4080   -0.1860 H   0  0  0  0  0  0  0  0  0  0  0  0
    4.5920    1.9860    2.5440 H   0  0  0  0  0  0  0  0  0  0  0  0
    1.6750    4.4410    0.5950 H   0  0  0  0  0  0  0  0  0  0  0  0
   -4.5010    0.7190    5.3130 H   0  0  0  0  0  0  0  0  0  0  0  0
    0.7260   -2.8630   -1.9580 H   0  0  0  0  0  0  0  0  0  0  0  0
   -2.5110   -0.0560   -2.2050 H   0  0  0  0  0  0  0  0  0  0  0  0
    0.6990   -3.1060   -4.4210 H   0  0  0  0  0  0  0  0  0  0  0  0
   -2.5360   -0.3050   -4.6670 H   0  0  0  0  0  0  0  0  0  0  0  0
   -0.5430    3.5590    4.4150 H   0  0  0  0  0  0  0  0  0  0  0  0
   -3.6560    2.2600    7.0670 H   0  0  0  0  0  0  0  0  0  0  0  0
   -1.6780    3.6770    6.6150 H   0  0  0  0  0  0  0  0  0  0  0  0
  1  2  1  0  0  0  0
  1  5  1  0  0  0  0
  1 12  2  0  0  0  0
  2  3  1  0  0  0  0
  2 31  1  0  0  0  0
  3  4  2  0  0  0  0
  3  9  1  0  0  0  0
  4  8  1  0  0  0  0
  5  8  2  0  0  0  0
  5 23  1  0  0  0  0
  6  7  1  0  0  0  0
  6  9  1  0  0  0  0
  6 11  1  0  0  0  0
  7 10  1  0  0  0  0
  7 13  2  0  0  0  0
  8 28  1  0  0  0  0
  9 32  1  0  0  0  0
  9 33  1  0  0  0  0
 10 14  2  0  0  0  0
 10 15  1  0  0  0  0
 11 16  1  0  0  0  0
 11 34  1  0  0  0  0
 11 35  1  0  0  0  0
 14 19  1  0  0  0  0
 14 36  1  0  0  0  0
 15 20  2  0  0  0  0
 15 37  1  0  0  0  0
 16 24  2  0  0  0  0
 16 25  1  0  0  0  0
 17 19  2  0  0  0  0
 17 20  1  0  0  0  0
 17 21  1  0  0  0  0
 18 22  1  0  0  0  0
 18 26  2  0  0  0  0
 18 27  1  0  0  0  0
 19 38  1  0  0  0  0
 20 39  1  0  0  0  0
 23 29  2  0  0  0  0
 23 40  1  0  0  0  0
 24 26  1  0  0  0  0
 24 41  1  0  0  0  0
 25 27  2  0  0  0  0
 25 42  1  0  0  0  0
 26 43  1  0  0  0  0
 27 44  1  0  0  0  0
 28 30  2  0  0  0  0
 28 45  1  0  0  0  0
 29 30  1  0  0  0  0
 29 46  1  0  0  0  0
 30 47  1  0  0  0  0
M  END
>  <$CLUSTER>
234

>  <INDEX>
151610

$$$$
Asinex ASN 05812696
  MOE2020           3D

 49 51  0  0  0  0  0  0  0  0999 V2000
   -4.0000   -0.3280    1.6770 C   0  0  0  0  0  0  0  0  0  0  0  0
   -2.8660   -0.7600    1.0610 N   0  0  0  0  0  0  0  0  0  0  0  0
   -2.5610   -0.4170   -0.2330 C   0  0  0  0  0  0  0  0  0  0  0  0
   -3.2890    0.3620   -0.9630 N   0  0  0  0  0  0  0  0  0  0  0  0
   -4.8500    0.5390    0.8570 C   0  0  0  0  0  0  0  0  0  0  0  0
   -4.4460    0.8210   -0.3830 C   0  0  0  0  0  0  0  0  0  0  0  0
   -0.0740   -0.2740   -0.1730 N   0  0  0  0  0  0  0  0  0  0  0  0
    0.3380   -0.6600    1.1100 C   0  0  0  0  0  0  0  0  0  0  0  0
   -1.2380   -0.9670   -0.7460 C   0  0  0  0  0  0  0  0  0  0  0  0
   -4.3220   -0.6230    2.8250 O   0  0  0  0  0  0  0  0  0  0  0  0
   -0.2420   -1.5120    1.7900 O   0  0  0  0  0  0  0  0  0  0  0  0
    0.6130    0.7580   -0.9930 C   0  0  0  0  0  0  0  0  0  0  0  0
   -6.0610    1.0570    1.4040 C   0  0  0  0  0  0  0  0  0  0  0  0
   -5.2700    1.6790   -1.2030 C   0  0  0  0  0  0  0  0  0  0  0  0
    1.5640    0.0150    1.6730 C   0  0  0  0  0  0  0  0  0  0  0  0
   -0.3400    1.7850   -1.6060 C   0  0  0  0  0  0  0  0  0  0  0  0
    1.4810    0.1000   -2.0680 C   0  0  0  0  0  0  0  0  0  0  0  0
    1.9790   -0.4030    3.0200 C   0  0  0  0  0  0  0  0  0  0  0  0
   -6.8580    1.8850    0.6130 C   0  0  0  0  0  0  0  0  0  0  0  0
   -6.4630    2.1960   -0.6890 C   0  0  0  0  0  0  0  0  0  0  0  0
    3.2060    0.2950    3.5450 C   0  0  0  0  0  0  0  0  0  0  0  0
    0.3550    2.7890   -2.4670 C   0  0  0  0  0  0  0  0  0  0  0  0
    2.1870    1.1180   -2.9450 C   0  0  0  0  0  0  0  0  0  0  0  0
    1.2050    2.1200   -3.5430 C   0  0  0  0  0  0  0  0  0  0  0  0
   -2.2280   -1.3520    1.5730 H   0  0  0  0  0  0  0  0  0  0  0  0
   -1.2110   -0.8560   -1.8300 H   0  0  0  0  0  0  0  0  0  0  0  0
   -1.1760   -2.0240   -0.4880 H   0  0  0  0  0  0  0  0  0  0  0  0
    1.2530    1.3180   -0.3110 H   0  0  0  0  0  0  0  0  0  0  0  0
   -6.3560    0.8120    2.4140 H   0  0  0  0  0  0  0  0  0  0  0  0
   -4.9650    1.9200   -2.2110 H   0  0  0  0  0  0  0  0  0  0  0  0
    1.3680    1.0870    1.7040 H   0  0  0  0  0  0  0  0  0  0  0  0
    2.3930   -0.1830    0.9940 H   0  0  0  0  0  0  0  0  0  0  0  0
   -0.8470    2.3130   -0.7980 H   0  0  0  0  0  0  0  0  0  0  0  0
   -1.0750    1.2570   -2.2130 H   0  0  0  0  0  0  0  0  0  0  0  0
    0.8460   -0.5240   -2.6970 H   0  0  0  0  0  0  0  0  0  0  0  0
    2.2310   -0.5220   -1.5800 H   0  0  0  0  0  0  0  0  0  0  0  0
    2.1820   -1.4740    2.9960 H   0  0  0  0  0  0  0  0  0  0  0  0
    1.1560   -0.2040    3.7060 H   0  0  0  0  0  0  0  0  0  0  0  0
   -7.7800    2.2850    1.0080 H   0  0  0  0  0  0  0  0  0  0  0  0
   -7.0800    2.8370   -1.3010 H   0  0  0  0  0  0  0  0  0  0  0  0
    4.0440    0.1100    2.8740 H   0  0  0  0  0  0  0  0  0  0  0  0
    3.4440   -0.0870    4.5380 H   0  0  0  0  0  0  0  0  0  0  0  0
    3.0170    1.3670    3.6040 H   0  0  0  0  0  0  0  0  0  0  0  0
    1.0000    3.4050   -1.8400 H   0  0  0  0  0  0  0  0  0  0  0  0
   -0.3930    3.4190   -2.9490 H   0  0  0  0  0  0  0  0  0  0  0  0
    2.6960    0.5950   -3.7550 H   0  0  0  0  0  0  0  0  0  0  0  0
    2.9190    1.6560   -2.3430 H   0  0  0  0  0  0  0  0  0  0  0  0
    1.7650    2.8870   -4.0780 H   0  0  0  0  0  0  0  0  0  0  0  0
    0.5480    1.5980   -4.2390 H   0  0  0  0  0  0  0  0  0  0  0  0
  1  2  1  0  0  0  0
  1  5  1  0  0  0  0
  1 10  2  0  0  0  0
  2  3  1  0  0  0  0
  2 25  1  0  0  0  0
  3  4  2  0  0  0  0
  3  9  1  0  0  0  0
  4  6  1  0  0  0  0
  5  6  2  0  0  0  0
  5 13  1  0  0  0  0
  6 14  1  0  0  0  0
  7  8  1  0  0  0  0
  7  9  1  0  0  0  0
  7 12  1  0  0  0  0
  8 11  2  0  0  0  0
  8 15  1  0  0  0  0
  9 26  1  0  0  0  0
  9 27  1  0  0  0  0
 12 16  1  0  0  0  0
 12 17  1  0  0  0  0
 12 28  1  0  0  0  0
 13 19  2  0  0  0  0
 13 29  1  0  0  0  0
 14 20  2  0  0  0  0
 14 30  1  0  0  0  0
 15 18  1  0  0  0  0
 15 31  1  0  0  0  0
 15 32  1  0  0  0  0
 16 22  1  0  0  0  0
 16 33  1  0  0  0  0
 16 34  1  0  0  0  0
 17 23  1  0  0  0  0
 17 35  1  0  0  0  0
 17 36  1  0  0  0  0
 18 21  1  0  0  0  0
 18 37  1  0  0  0  0
 18 38  1  0  0  0  0
 19 20  1  0  0  0  0
 19 39  1  0  0  0  0
 20 40  1  0  0  0  0
 21 41  1  0  0  0  0
 21 42  1  0  0  0  0
 21 43  1  0  0  0  0
 22 24  1  0  0  0  0
 22 44  1  0  0  0  0
 22 45  1  0  0  0  0
 23 24  1  0  0  0  0
 23 46  1  0  0  0  0
 23 47  1  0  0  0  0
 24 48  1  0  0  0  0
 24 49  1  0  0  0  0
M  END
>  <$CLUSTER>
235

>  <INDEX>
151531

$$$$
Asinex ASN 05917937
  MOE2020           3D

 48 50  0  0  0  0  0  0  0  0999 V2000
   -0.0780    0.2440   -0.0250 C   0  0  0  0  0  0  0  0  0  0  0  0
   -0.5200   -1.0550    0.0910 N   0  0  0  0  0  0  0  0  0  0  0  0
    1.2640    0.7720   -0.0920 C   0  0  0  0  0  0  0  0  0  0  0  0
   -1.1180    1.0520   -0.0770 N   0  0  0  0  0  0  0  0  0  0  0  0
   -1.8910   -0.9630    0.1200 C   0  0  0  0  0  0  0  0  0  0  0  0
   -2.2570    0.2930    0.0190 N   0  0  0  0  0  0  0  0  0  0  0  0
    1.6000    1.9550   -0.7270 C   0  0  0  0  0  0  0  0  0  0  0  0
   -2.9470   -2.3290    0.2590 S   0  0  0  0  0  0  0  0  0  0  0  0
    2.4650    0.2590    0.4540 C   0  0  0  0  0  0  0  0  0  0  0  0
    2.9400    2.1840   -0.6020 O   0  0  0  0  0  0  0  0  0  0  0  0
   -4.9230   -0.9560   -1.1240 C   0  0  0  0  0  0  0  0  0  0  0  0
    3.4540    1.1520    0.1140 C   0  0  0  0  0  0  0  0  0  0  0  0
   -4.6320    0.3580   -1.2680 N   0  0  0  0  0  0  0  0  0  0  0  0
   -5.3580   -1.6460   -2.0390 O   0  0  0  0  0  0  0  0  0  0  0  0
    0.2820   -2.2620    0.1440 C   0  0  0  0  0  0  0  0  0  0  0  0
   -4.5670   -1.5310    0.2440 C   0  0  0  0  0  0  0  0  0  0  0  0
   -4.7930    1.2480   -2.3420 C   0  0  0  0  0  0  0  0  0  0  0  0
   -5.0700    3.0880   -4.4470 C   0  0  0  0  0  0  0  0  0  0  0  0
   -5.1710    4.0200   -5.3940 F   0  0  0  0  0  0  0  0  0  0  0  0
   -5.3040    0.8380   -3.5770 C   0  0  0  0  0  0  0  0  0  0  0  0
   -4.4220    2.5910   -2.1750 C   0  0  0  0  0  0  0  0  0  0  0  0
   -5.4400    1.7570   -4.6230 C   0  0  0  0  0  0  0  0  0  0  0  0
   -4.5600    3.5050   -3.2210 C   0  0  0  0  0  0  0  0  0  0  0  0
    0.8460    2.9750   -1.4860 C   0  0  0  0  0  0  0  0  0  0  0  0
    0.5260   -2.7460    1.5640 C   0  0  0  0  0  0  0  0  0  0  0  0
    1.3750   -4.0010    1.6090 C   0  0  0  0  0  0  0  0  0  0  0  0
    1.6090   -4.4700    3.0350 C   0  0  0  0  0  0  0  0  0  0  0  0
    2.5810   -0.6510    1.0230 H   0  0  0  0  0  0  0  0  0  0  0  0
    4.4950    1.0470    0.3800 H   0  0  0  0  0  0  0  0  0  0  0  0
   -4.2210    0.7780   -0.4470 H   0  0  0  0  0  0  0  0  0  0  0  0
    1.2450   -2.0610   -0.3260 H   0  0  0  0  0  0  0  0  0  0  0  0
   -0.2340   -3.0480   -0.4080 H   0  0  0  0  0  0  0  0  0  0  0  0
   -4.5640   -0.7210    0.9740 H   0  0  0  0  0  0  0  0  0  0  0  0
   -5.3220   -2.2670    0.5210 H   0  0  0  0  0  0  0  0  0  0  0  0
   -5.5950   -0.1920   -3.7240 H   0  0  0  0  0  0  0  0  0  0  0  0
   -4.0250    2.9210   -1.2260 H   0  0  0  0  0  0  0  0  0  0  0  0
   -5.8350    1.4320   -5.5740 H   0  0  0  0  0  0  0  0  0  0  0  0
   -4.2710    4.5360   -3.0790 H   0  0  0  0  0  0  0  0  0  0  0  0
   -0.2070    2.6950   -1.5240 H   0  0  0  0  0  0  0  0  0  0  0  0
    1.2420    3.0400   -2.5000 H   0  0  0  0  0  0  0  0  0  0  0  0
    0.9470    3.9420   -0.9940 H   0  0  0  0  0  0  0  0  0  0  0  0
   -0.4360   -2.9570    2.0320 H   0  0  0  0  0  0  0  0  0  0  0  0
    1.0350   -1.9590    2.1190 H   0  0  0  0  0  0  0  0  0  0  0  0
    2.3380   -3.7930    1.1430 H   0  0  0  0  0  0  0  0  0  0  0  0
    0.8670   -4.7910    1.0560 H   0  0  0  0  0  0  0  0  0  0  0  0
    2.1170   -3.6860    3.5970 H   0  0  0  0  0  0  0  0  0  0  0  0
    2.2260   -5.3680    3.0250 H   0  0  0  0  0  0  0  0  0  0  0  0
    0.6520   -4.6920    3.5060 H   0  0  0  0  0  0  0  0  0  0  0  0
  1  2  1  0  0  0  0
  1  3  1  0  0  0  0
  1  4  2  0  0  0  0
  2  5  1  0  0  0  0
  2 15  1  0  0  0  0
  3  7  2  0  0  0  0
  3  9  1  0  0  0  0
  4  6  1  0  0  0  0
  5  6  2  0  0  0  0
  5  8  1  0  0  0  0
  7 10  1  0  0  0  0
  7 24  1  0  0  0  0
  8 16  1  0  0  0  0
  9 12  2  0  0  0  0
  9 28  1  0  0  0  0
 10 12  1  0  0  0  0
 11 13  1  0  0  0  0
 11 14  2  0  0  0  0
 11 16  1  0  0  0  0
 12 29  1  0  0  0  0
 13 17  1  0  0  0  0
 13 30  1  0  0  0  0
 15 25  1  0  0  0  0
 15 31  1  0  0  0  0
 15 32  1  0  0  0  0
 16 33  1  0  0  0  0
 16 34  1  0  0  0  0
 17 20  2  0  0  0  0
 17 21  1  0  0  0  0
 18 19  1  0  0  0  0
 18 22  2  0  0  0  0
 18 23  1  0  0  0  0
 20 22  1  0  0  0  0
 20 35  1  0  0  0  0
 21 23  2  0  0  0  0
 21 36  1  0  0  0  0
 22 37  1  0  0  0  0
 23 38  1  0  0  0  0
 24 39  1  0  0  0  0
 24 40  1  0  0  0  0
 24 41  1  0  0  0  0
 25 26  1  0  0  0  0
 25 42  1  0  0  0  0
 25 43  1  0  0  0  0
 26 27  1  0  0  0  0
 26 44  1  0  0  0  0
 26 45  1  0  0  0  0
 27 46  1  0  0  0  0
 27 47  1  0  0  0  0
 27 48  1  0  0  0  0
M  END
>  <$CLUSTER>
236

>  <INDEX>
152448

$$$$
Asinex ASN 05988224
  MOE2020           3D

 43 45  0  0  0  0  0  0  0  0999 V2000
    0.7750   -0.3200   -0.3670 N   0  0  0  0  0  0  0  0  0  0  0  0
   -0.3370   -0.1260    0.4270 C   0  0  0  0  0  0  0  0  0  0  0  0
   -0.0620   -0.5340    1.6520 N   0  0  0  0  0  0  0  0  0  0  0  0
    1.7330   -0.8320    0.4740 C   0  0  0  0  0  0  0  0  0  0  0  0
    1.2380   -0.9730    1.6820 N   0  0  0  0  0  0  0  0  0  0  0  0
   -1.6030    0.4230    0.0600 C   0  0  0  0  0  0  0  0  0  0  0  0
    3.3480   -1.2150   -0.0190 S   0  0  0  0  0  0  0  0  0  0  0  0
   -1.8200    0.9780   -1.1710 O   0  0  0  0  0  0  0  0  0  0  0  0
    4.2250   -0.6800    2.5270 C   0  0  0  0  0  0  0  0  0  0  0  0
    5.4660    0.1710    2.3990 C   0  0  0  0  0  0  0  0  0  0  0  0
   -2.7640    0.5210    0.8070 C   0  0  0  0  0  0  0  0  0  0  0  0
    4.0630   -1.8140    1.5280 C   0  0  0  0  0  0  0  0  0  0  0  0
   -3.1040    1.4140   -1.2040 C   0  0  0  0  0  0  0  0  0  0  0  0
   -3.7300    1.1560   -0.0090 C   0  0  0  0  0  0  0  0  0  0  0  0
    3.3750   -0.4410    3.3880 O   0  0  0  0  0  0  0  0  0  0  0  0
    0.9060   -0.0500   -1.7870 C   0  0  0  0  0  0  0  0  0  0  0  0
    5.6090    1.2270    3.3210 C   0  0  0  0  0  0  0  0  0  0  0  0
    6.4310   -0.0590    1.4470 C   0  0  0  0  0  0  0  0  0  0  0  0
    7.7170    1.8100    2.2920 C   0  0  0  0  0  0  0  0  0  0  0  0
    7.5610    0.7610    1.3880 C   0  0  0  0  0  0  0  0  0  0  0  0
    6.7410    2.0420    3.2580 C   0  0  0  0  0  0  0  0  0  0  0  0
    8.8240    2.5400    2.1640 F   0  0  0  0  0  0  0  0  0  0  0  0
    1.3560    1.3730   -2.0730 C   0  0  0  0  0  0  0  0  0  0  0  0
    1.4790    1.6510   -3.5590 C   0  0  0  0  0  0  0  0  0  0  0  0
    1.9290    3.0770   -3.8290 C   0  0  0  0  0  0  0  0  0  0  0  0
   -2.9060    0.1780    1.8210 H   0  0  0  0  0  0  0  0  0  0  0  0
    5.0400   -2.2510    1.3230 H   0  0  0  0  0  0  0  0  0  0  0  0
    3.4070   -2.5730    1.9540 H   0  0  0  0  0  0  0  0  0  0  0  0
   -3.5690    1.8960   -2.0510 H   0  0  0  0  0  0  0  0  0  0  0  0
   -4.7510    1.3900    0.2540 H   0  0  0  0  0  0  0  0  0  0  0  0
   -0.0610   -0.2130   -2.2640 H   0  0  0  0  0  0  0  0  0  0  0  0
    1.6390   -0.7390   -2.2070 H   0  0  0  0  0  0  0  0  0  0  0  0
    4.8500    1.4040    4.0690 H   0  0  0  0  0  0  0  0  0  0  0  0
    6.3160   -0.8720    0.7460 H   0  0  0  0  0  0  0  0  0  0  0  0
    8.3170    0.5810    0.6380 H   0  0  0  0  0  0  0  0  0  0  0  0
    6.8600    2.8540    3.9600 H   0  0  0  0  0  0  0  0  0  0  0  0
    2.3270    1.5340   -1.6050 H   0  0  0  0  0  0  0  0  0  0  0  0
    0.6280    2.0630   -1.6470 H   0  0  0  0  0  0  0  0  0  0  0  0
    0.5090    1.4920   -4.0300 H   0  0  0  0  0  0  0  0  0  0  0  0
    2.2080    0.9630   -3.9880 H   0  0  0  0  0  0  0  0  0  0  0  0
    1.2060    3.7730   -3.4040 H   0  0  0  0  0  0  0  0  0  0  0  0
    1.9990    3.2380   -4.9050 H   0  0  0  0  0  0  0  0  0  0  0  0
    2.9050    3.2430   -3.3720 H   0  0  0  0  0  0  0  0  0  0  0  0
  1  2  1  0  0  0  0
  1  4  1  0  0  0  0
  1 16  1  0  0  0  0
  2  3  2  0  0  0  0
  2  6  1  0  0  0  0
  3  5  1  0  0  0  0
  4  5  2  0  0  0  0
  4  7  1  0  0  0  0
  6  8  1  0  0  0  0
  6 11  2  0  0  0  0
  7 12  1  0  0  0  0
  8 13  1  0  0  0  0
  9 10  1  0  0  0  0
  9 12  1  0  0  0  0
  9 15  2  0  0  0  0
 10 17  1  0  0  0  0
 10 18  2  0  0  0  0
 11 14  1  0  0  0  0
 11 26  1  0  0  0  0
 12 27  1  0  0  0  0
 12 28  1  0  0  0  0
 13 14  2  0  0  0  0
 13 29  1  0  0  0  0
 14 30  1  0  0  0  0
 16 23  1  0  0  0  0
 16 31  1  0  0  0  0
 16 32  1  0  0  0  0
 17 21  2  0  0  0  0
 17 33  1  0  0  0  0
 18 20  1  0  0  0  0
 18 34  1  0  0  0  0
 19 20  2  0  0  0  0
 19 21  1  0  0  0  0
 19 22  1  0  0  0  0
 20 35  1  0  0  0  0
 21 36  1  0  0  0  0
 23 24  1  0  0  0  0
 23 37  1  0  0  0  0
 23 38  1  0  0  0  0
 24 25  1  0  0  0  0
 24 39  1  0  0  0  0
 24 40  1  0  0  0  0
 25 41  1  0  0  0  0
 25 42  1  0  0  0  0
 25 43  1  0  0  0  0
M  END
>  <$CLUSTER>
237

>  <INDEX>
153745

$$$$
Asinex ASN 05919881
  MOE2020           3D

 46 48  0  0  0  0  0  0  0  0999 V2000
   -0.0780    0.2440   -0.0250 C   0  0  0  0  0  0  0  0  0  0  0  0
   -0.5200   -1.0550    0.0910 N   0  0  0  0  0  0  0  0  0  0  0  0
    1.2640    0.7720   -0.0920 C   0  0  0  0  0  0  0  0  0  0  0  0
   -1.1180    1.0520   -0.0770 N   0  0  0  0  0  0  0  0  0  0  0  0
   -1.8910   -0.9630    0.1200 C   0  0  0  0  0  0  0  0  0  0  0  0
   -2.2570    0.2930    0.0190 N   0  0  0  0  0  0  0  0  0  0  0  0
    1.6000    1.9550   -0.7270 C   0  0  0  0  0  0  0  0  0  0  0  0
   -2.9470   -2.3290    0.2590 S   0  0  0  0  0  0  0  0  0  0  0  0
    2.4650    0.2590    0.4540 C   0  0  0  0  0  0  0  0  0  0  0  0
    2.9400    2.1840   -0.6020 O   0  0  0  0  0  0  0  0  0  0  0  0
    3.4540    1.1520    0.1140 C   0  0  0  0  0  0  0  0  0  0  0  0
   -4.7950   -0.7380    1.5210 C   0  0  0  0  0  0  0  0  0  0  0  0
   -4.5670   -1.5310    0.2440 C   0  0  0  0  0  0  0  0  0  0  0  0
   -4.5600    0.4710    1.5900 O   0  0  0  0  0  0  0  0  0  0  0  0
   -5.2940   -1.5050    2.7220 C   0  0  0  0  0  0  0  0  0  0  0  0
    0.2820   -2.2620    0.1440 C   0  0  0  0  0  0  0  0  0  0  0  0
    0.8460    2.9750   -1.4860 C   0  0  0  0  0  0  0  0  0  0  0  0
   -5.4970   -0.7690    3.9060 C   0  0  0  0  0  0  0  0  0  0  0  0
   -5.5590   -2.8540    2.6850 C   0  0  0  0  0  0  0  0  0  0  0  0
    0.5260   -2.7460    1.5640 C   0  0  0  0  0  0  0  0  0  0  0  0
    1.3750   -4.0010    1.6090 C   0  0  0  0  0  0  0  0  0  0  0  0
    1.6090   -4.4700    3.0350 C   0  0  0  0  0  0  0  0  0  0  0  0
   -5.9660   -1.4220    5.0460 C   0  0  0  0  0  0  0  0  0  0  0  0
   -6.0280   -3.5030    3.8300 C   0  0  0  0  0  0  0  0  0  0  0  0
   -6.2320   -2.7890    5.0090 C   0  0  0  0  0  0  0  0  0  0  0  0
    2.5810   -0.6510    1.0230 H   0  0  0  0  0  0  0  0  0  0  0  0
    4.4950    1.0470    0.3800 H   0  0  0  0  0  0  0  0  0  0  0  0
   -5.3400   -2.2950    0.1560 H   0  0  0  0  0  0  0  0  0  0  0  0
   -4.6240   -0.8560   -0.6100 H   0  0  0  0  0  0  0  0  0  0  0  0
    1.2450   -2.0610   -0.3260 H   0  0  0  0  0  0  0  0  0  0  0  0
   -0.2340   -3.0480   -0.4080 H   0  0  0  0  0  0  0  0  0  0  0  0
   -0.2070    2.6950   -1.5240 H   0  0  0  0  0  0  0  0  0  0  0  0
    1.2420    3.0400   -2.5000 H   0  0  0  0  0  0  0  0  0  0  0  0
    0.9470    3.9420   -0.9940 H   0  0  0  0  0  0  0  0  0  0  0  0
   -5.2910    0.2910    3.9310 H   0  0  0  0  0  0  0  0  0  0  0  0
   -5.4050   -3.4110    1.7720 H   0  0  0  0  0  0  0  0  0  0  0  0
   -0.4360   -2.9570    2.0320 H   0  0  0  0  0  0  0  0  0  0  0  0
    1.0350   -1.9590    2.1190 H   0  0  0  0  0  0  0  0  0  0  0  0
    2.3380   -3.7930    1.1430 H   0  0  0  0  0  0  0  0  0  0  0  0
    0.8670   -4.7910    1.0560 H   0  0  0  0  0  0  0  0  0  0  0  0
    2.1170   -3.6860    3.5970 H   0  0  0  0  0  0  0  0  0  0  0  0
    2.2260   -5.3680    3.0250 H   0  0  0  0  0  0  0  0  0  0  0  0
    0.6520   -4.6920    3.5060 H   0  0  0  0  0  0  0  0  0  0  0  0
   -6.1230   -0.8670    5.9590 H   0  0  0  0  0  0  0  0  0  0  0  0
   -6.2330   -4.5630    3.8010 H   0  0  0  0  0  0  0  0  0  0  0  0
   -6.5950   -3.2940    5.8920 H   0  0  0  0  0  0  0  0  0  0  0  0
  1  2  1  0  0  0  0
  1  3  1  0  0  0  0
  1  4  2  0  0  0  0
  2  5  1  0  0  0  0
  2 16  1  0  0  0  0
  3  7  2  0  0  0  0
  3  9  1  0  0  0  0
  4  6  1  0  0  0  0
  5  6  2  0  0  0  0
  5  8  1  0  0  0  0
  7 10  1  0  0  0  0
  7 17  1  0  0  0  0
  8 13  1  0  0  0  0
  9 11  2  0  0  0  0
  9 26  1  0  0  0  0
 10 11  1  0  0  0  0
 11 27  1  0  0  0  0
 12 13  1  0  0  0  0
 12 14  2  0  0  0  0
 12 15  1  0  0  0  0
 13 28  1  0  0  0  0
 13 29  1  0  0  0  0
 15 18  2  0  0  0  0
 15 19  1  0  0  0  0
 16 20  1  0  0  0  0
 16 30  1  0  0  0  0
 16 31  1  0  0  0  0
 17 32  1  0  0  0  0
 17 33  1  0  0  0  0
 17 34  1  0  0  0  0
 18 23  1  0  0  0  0
 18 35  1  0  0  0  0
 19 24  2  0  0  0  0
 19 36  1  0  0  0  0
 20 21  1  0  0  0  0
 20 37  1  0  0  0  0
 20 38  1  0  0  0  0
 21 22  1  0  0  0  0
 21 39  1  0  0  0  0
 21 40  1  0  0  0  0
 22 41  1  0  0  0  0
 22 42  1  0  0  0  0
 22 43  1  0  0  0  0
 23 25  2  0  0  0  0
 23 44  1  0  0  0  0
 24 25  1  0  0  0  0
 24 45  1  0  0  0  0
 25 46  1  0  0  0  0
M  END
>  <$CLUSTER>
238

>  <INDEX>
152557

$$$$
Asinex ASN 05923343
  MOE2020           3D

 45 48  0  0  0  0  0  0  0  0999 V2000
    0.0480    0.3470   -1.0060 N   0  0  0  0  0  0  0  0  0  0  0  0
   -0.2720    1.3330   -0.1020 C   0  0  0  0  0  0  0  0  0  0  0  0
    0.0250    0.9840    1.1330 N   0  0  0  0  0  0  0  0  0  0  0  0
    0.5780   -0.6970   -0.2870 C   0  0  0  0  0  0  0  0  0  0  0  0
    0.5540   -0.2770    1.0360 C   0  0  0  0  0  0  0  0  0  0  0  0
   -0.9930    2.8420   -0.5730 S   0  0  0  0  0  0  0  0  0  0  0  0
   -0.1170    0.3530   -2.4490 C   0  0  0  0  0  0  0  0  0  0  0  0
    1.0240   -1.8770   -0.7570 N   0  0  0  0  0  0  0  0  0  0  0  0
    0.1690    4.0930    1.6150 C   0  0  0  0  0  0  0  0  0  0  0  0
    0.6950    3.2080    2.4940 N   0  0  0  0  0  0  0  0  0  0  0  0
    0.7560    5.1090    1.2610 O   0  0  0  0  0  0  0  0  0  0  0  0
   -1.1720    3.6670    1.0240 C   0  0  0  0  0  0  0  0  0  0  0  0
    1.8830    3.2140    3.2420 C   0  0  0  0  0  0  0  0  0  0  0  0
    4.2450    3.1450    4.7630 C   0  0  0  0  0  0  0  0  0  0  0  0
   -1.4740   -0.1760   -2.8790 C   0  0  0  0  0  0  0  0  0  0  0  0
    5.3380    3.0400    5.5160 F   0  0  0  0  0  0  0  0  0  0  0  0
    2.8220    4.2460    3.1390 C   0  0  0  0  0  0  0  0  0  0  0  0
    2.1430    2.1480    4.1160 C   0  0  0  0  0  0  0  0  0  0  0  0
    3.9970    4.2080    3.8970 C   0  0  0  0  0  0  0  0  0  0  0  0
    3.3160    2.1140    4.8710 C   0  0  0  0  0  0  0  0  0  0  0  0
    1.0430   -1.1530    2.0130 C   0  0  0  0  0  0  0  0  0  0  0  0
    1.4860   -2.6880    0.2240 C   0  0  0  0  0  0  0  0  0  0  0  0
   -2.5140    0.7070   -3.1980 C   0  0  0  0  0  0  0  0  0  0  0  0
   -1.7110   -1.5570   -2.9300 C   0  0  0  0  0  0  0  0  0  0  0  0
    1.5200   -2.3910    1.5820 C   0  0  0  0  0  0  0  0  0  0  0  0
   -2.9590   -2.0470   -3.3220 C   0  0  0  0  0  0  0  0  0  0  0  0
   -3.7630    0.2160   -3.5890 C   0  0  0  0  0  0  0  0  0  0  0  0
   -3.9840   -1.1610   -3.6540 C   0  0  0  0  0  0  0  0  0  0  0  0
    0.6590   -0.2710   -2.8930 H   0  0  0  0  0  0  0  0  0  0  0  0
   -0.0100    1.3760   -2.8090 H   0  0  0  0  0  0  0  0  0  0  0  0
    0.1240    2.3870    2.6390 H   0  0  0  0  0  0  0  0  0  0  0  0
   -1.6580    2.9820    1.7190 H   0  0  0  0  0  0  0  0  0  0  0  0
   -1.7930    4.5530    0.8920 H   0  0  0  0  0  0  0  0  0  0  0  0
    2.6390    5.0750    2.4720 H   0  0  0  0  0  0  0  0  0  0  0  0
    1.4270    1.3440    4.2060 H   0  0  0  0  0  0  0  0  0  0  0  0
    4.7170    5.0080    3.8100 H   0  0  0  0  0  0  0  0  0  0  0  0
    3.5030    1.2870    5.5400 H   0  0  0  0  0  0  0  0  0  0  0  0
    1.0510   -0.8810    3.0580 H   0  0  0  0  0  0  0  0  0  0  0  0
    1.8630   -3.6550   -0.0760 H   0  0  0  0  0  0  0  0  0  0  0  0
   -2.3500    1.7730   -3.1410 H   0  0  0  0  0  0  0  0  0  0  0  0
   -0.9230   -2.2470   -2.6640 H   0  0  0  0  0  0  0  0  0  0  0  0
    1.9090   -3.1070    2.2910 H   0  0  0  0  0  0  0  0  0  0  0  0
   -3.1300   -3.1120   -3.3680 H   0  0  0  0  0  0  0  0  0  0  0  0
   -4.5580    0.9020   -3.8410 H   0  0  0  0  0  0  0  0  0  0  0  0
   -4.9480   -1.5400   -3.9610 H   0  0  0  0  0  0  0  0  0  0  0  0
  1  2  1  0  0  0  0
  1  4  1  0  0  0  0
  1  7  1  0  0  0  0
  2  3  2  0  0  0  0
  2  6  1  0  0  0  0
  3  5  1  0  0  0  0
  4  5  2  0  0  0  0
  4  8  1  0  0  0  0
  5 21  1  0  0  0  0
  6 12  1  0  0  0  0
  7 15  1  0  0  0  0
  7 29  1  0  0  0  0
  7 30  1  0  0  0  0
  8 22  2  0  0  0  0
  9 10  1  0  0  0  0
  9 11  2  0  0  0  0
  9 12  1  0  0  0  0
 10 13  1  0  0  0  0
 10 31  1  0  0  0  0
 12 32  1  0  0  0  0
 12 33  1  0  0  0  0
 13 17  2  0  0  0  0
 13 18  1  0  0  0  0
 14 16  1  0  0  0  0
 14 19  2  0  0  0  0
 14 20  1  0  0  0  0
 15 23  1  0  0  0  0
 15 24  2  0  0  0  0
 17 19  1  0  0  0  0
 17 34  1  0  0  0  0
 18 20  2  0  0  0  0
 18 35  1  0  0  0  0
 19 36  1  0  0  0  0
 20 37  1  0  0  0  0
 21 25  2  0  0  0  0
 21 38  1  0  0  0  0
 22 25  1  0  0  0  0
 22 39  1  0  0  0  0
 23 27  2  0  0  0  0
 23 40  1  0  0  0  0
 24 26  1  0  0  0  0
 24 41  1  0  0  0  0
 25 42  1  0  0  0  0
 26 28  2  0  0  0  0
 26 43  1  0  0  0  0
 27 28  1  0  0  0  0
 27 44  1  0  0  0  0
 28 45  1  0  0  0  0
M  END
>  <$CLUSTER>
239

>  <INDEX>
152633

$$$$
Asinex ASN 03929945
  MOE2020           3D

 38 39  0  0  0  0  0  0  0  0999 V2000
   -0.3980    1.0350   -0.3720 N   0  0  0  0  0  0  0  0  0  0  0  0
    0.0100   -0.2830   -0.4450 C   0  0  0  0  0  0  0  0  0  0  0  0
    0.2480   -0.5800   -1.7100 N   0  0  0  0  0  0  0  0  0  0  0  0
   -0.4190    1.4830   -1.6680 C   0  0  0  0  0  0  0  0  0  0  0  0
   -0.0340    0.5240   -2.4770 N   0  0  0  0  0  0  0  0  0  0  0  0
   -0.8650    3.0930   -2.1260 S   0  0  0  0  0  0  0  0  0  0  0  0
   -1.6490    2.0290   -4.5330 C   0  0  0  0  0  0  0  0  0  0  0  0
    0.1980   -1.1920    0.6780 C   0  0  0  0  0  0  0  0  0  0  0  0
   -2.8560    2.2450   -4.6280 O   0  0  0  0  0  0  0  0  0  0  0  0
   -0.7180    1.7800    0.8330 C   0  0  0  0  0  0  0  0  0  0  0  0
   -0.6660    3.0230   -3.9190 C   0  0  0  0  0  0  0  0  0  0  0  0
   -1.0920    0.8650   -4.9560 N   0  0  0  0  0  0  0  0  0  0  0  0
    1.4820   -1.6530    0.9920 C   0  0  0  0  0  0  0  0  0  0  0  0
   -0.8950   -1.6450    1.4280 C   0  0  0  0  0  0  0  0  0  0  0  0
    0.5030    2.4560    1.4350 C   0  0  0  0  0  0  0  0  0  0  0  0
    0.1660    3.2250    2.7010 C   0  0  0  0  0  0  0  0  0  0  0  0
    1.3940    3.8960    3.2950 C   0  0  0  0  0  0  0  0  0  0  0  0
    1.6730   -2.5370    2.0550 C   0  0  0  0  0  0  0  0  0  0  0  0
   -0.7010   -2.5300    2.4910 C   0  0  0  0  0  0  0  0  0  0  0  0
    0.5820   -2.9730    2.8050 C   0  0  0  0  0  0  0  0  0  0  0  0
   -1.1370    1.0930    1.5690 H   0  0  0  0  0  0  0  0  0  0  0  0
   -1.4560    2.5440    0.5870 H   0  0  0  0  0  0  0  0  0  0  0  0
    0.3520    2.7110   -4.1540 H   0  0  0  0  0  0  0  0  0  0  0  0
   -0.8490    4.0120   -4.3380 H   0  0  0  0  0  0  0  0  0  0  0  0
   -1.6730    0.1460   -5.3630 H   0  0  0  0  0  0  0  0  0  0  0  0
   -0.0970    0.7190   -4.8640 H   0  0  0  0  0  0  0  0  0  0  0  0
    2.3290   -1.3230    0.4090 H   0  0  0  0  0  0  0  0  0  0  0  0
   -1.8920   -1.3090    1.1830 H   0  0  0  0  0  0  0  0  0  0  0  0
    0.9170    3.1490    0.7030 H   0  0  0  0  0  0  0  0  0  0  0  0
    1.2440    1.6940    1.6740 H   0  0  0  0  0  0  0  0  0  0  0  0
   -0.2480    2.5330    3.4350 H   0  0  0  0  0  0  0  0  0  0  0  0
   -0.5740    3.9890    2.4640 H   0  0  0  0  0  0  0  0  0  0  0  0
    2.1410    3.1390    3.5360 H   0  0  0  0  0  0  0  0  0  0  0  0
    1.1130    4.4310    4.2020 H   0  0  0  0  0  0  0  0  0  0  0  0
    1.8090    4.5990    2.5730 H   0  0  0  0  0  0  0  0  0  0  0  0
    2.6670   -2.8840    2.2970 H   0  0  0  0  0  0  0  0  0  0  0  0
   -1.5460   -2.8710    3.0700 H   0  0  0  0  0  0  0  0  0  0  0  0
    0.7310   -3.6540    3.6300 H   0  0  0  0  0  0  0  0  0  0  0  0
  1  2  1  0  0  0  0
  1  4  1  0  0  0  0
  1 10  1  0  0  0  0
  2  3  2  0  0  0  0
  2  8  1  0  0  0  0
  3  5  1  0  0  0  0
  4  5  2  0  0  0  0
  4  6  1  0  0  0  0
  6 11  1  0  0  0  0
  7  9  2  0  0  0  0
  7 11  1  0  0  0  0
  7 12  1  0  0  0  0
  8 13  2  0  0  0  0
  8 14  1  0  0  0  0
 10 15  1  0  0  0  0
 10 21  1  0  0  0  0
 10 22  1  0  0  0  0
 11 23  1  0  0  0  0
 11 24  1  0  0  0  0
 12 25  1  0  0  0  0
 12 26  1  0  0  0  0
 13 18  1  0  0  0  0
 13 27  1  0  0  0  0
 14 19  2  0  0  0  0
 14 28  1  0  0  0  0
 15 16  1  0  0  0  0
 15 29  1  0  0  0  0
 15 30  1  0  0  0  0
 16 17  1  0  0  0  0
 16 31  1  0  0  0  0
 16 32  1  0  0  0  0
 17 33  1  0  0  0  0
 17 34  1  0  0  0  0
 17 35  1  0  0  0  0
 18 20  2  0  0  0  0
 18 36  1  0  0  0  0
 19 20  1  0  0  0  0
 19 37  1  0  0  0  0
 20 38  1  0  0  0  0
M  END
>  <$CLUSTER>
240

>  <INDEX>
135490

$$$$
Asinex ASN 02617640
  MOE2020           3D

 46 48  0  0  0  0  0  0  0  0999 V2000
    0.0050   -0.0250   -0.0460 C   0  0  0  0  0  0  0  0  0  0  0  0
   -2.1860   -4.7180    1.2650 N   0  0  0  0  0  0  0  0  0  0  0  0
    1.3250   -0.3190   -0.3340 C   0  0  0  0  0  0  0  0  0  0  0  0
   -0.9360   -5.1390    0.9180 C   0  0  0  0  0  0  0  0  0  0  0  0
   -0.0730   -4.1660    1.1000 N   0  0  0  0  0  0  0  0  0  0  0  0
   -2.0020   -3.4520    1.6570 C   0  0  0  0  0  0  0  0  0  0  0  0
   -0.6730    1.0080   -1.2190 S   0  0  0  0  0  0  0  0  0  0  0  0
   -0.7700   -3.0770    1.5790 N   0  0  0  0  0  0  0  0  0  0  0  0
    1.7720    0.3150   -1.5300 C   0  0  0  0  0  0  0  0  0  0  0  0
    0.7810    1.0700   -2.1140 C   0  0  0  0  0  0  0  0  0  0  0  0
   -0.7300   -0.4810    1.0410 N   0  0  0  0  0  0  0  0  0  0  0  0
    2.1530   -1.1640    0.4740 C   0  0  0  0  0  0  0  0  0  0  0  0
    2.8210   -1.8480    1.1300 N   0  0  0  0  0  0  0  0  0  0  0  0
   -3.3870   -2.4290    2.2280 S   0  0  0  0  0  0  0  0  0  0  0  0
   -2.0580   -0.1860    1.3300 C   0  0  0  0  0  0  0  0  0  0  0  0
   -0.5350   -6.4720    0.3670 C   0  0  0  0  0  0  0  0  0  0  0  0
   -2.8390    0.5220    0.7030 O   0  0  0  0  0  0  0  0  0  0  0  0
   -2.4970   -0.8730    2.6000 C   0  0  0  0  0  0  0  0  0  0  0  0
   -1.2560   -7.0900   -0.6640 C   0  0  0  0  0  0  0  0  0  0  0  0
    0.5930   -7.1230    0.8860 C   0  0  0  0  0  0  0  0  0  0  0  0
   -3.3880   -5.5090    1.2000 C   0  0  0  0  0  0  0  0  0  0  0  0
    3.1070    0.1640   -2.0390 C   0  0  0  0  0  0  0  0  0  0  0  0
    0.9790   -8.3750    0.4010 C   0  0  0  0  0  0  0  0  0  0  0  0
   -0.8680   -8.3420   -1.1490 C   0  0  0  0  0  0  0  0  0  0  0  0
    0.2460   -8.9840   -0.6150 C   0  0  0  0  0  0  0  0  0  0  0  0
    0.9100    1.8380   -3.3340 C   0  0  0  0  0  0  0  0  0  0  0  0
    0.6530  -10.3250   -1.1330 C   0  0  0  0  0  0  0  0  0  0  0  0
   -0.2500   -1.0900    1.6890 H   0  0  0  0  0  0  0  0  0  0  0  0
   -1.6190   -1.1000    3.2050 H   0  0  0  0  0  0  0  0  0  0  0  0
   -3.1580   -0.2080    3.1550 H   0  0  0  0  0  0  0  0  0  0  0  0
   -2.1180   -6.5950   -1.0870 H   0  0  0  0  0  0  0  0  0  0  0  0
    1.1690   -6.6520    1.6690 H   0  0  0  0  0  0  0  0  0  0  0  0
   -3.1480   -6.5050    0.8280 H   0  0  0  0  0  0  0  0  0  0  0  0
   -4.1010   -5.0320    0.5270 H   0  0  0  0  0  0  0  0  0  0  0  0
   -3.8250   -5.5890    2.1950 H   0  0  0  0  0  0  0  0  0  0  0  0
    3.6770   -0.4880   -1.3770 H   0  0  0  0  0  0  0  0  0  0  0  0
    3.5890    1.1400   -2.0900 H   0  0  0  0  0  0  0  0  0  0  0  0
    3.0680   -0.2750   -3.0360 H   0  0  0  0  0  0  0  0  0  0  0  0
    1.8450   -8.8710    0.8140 H   0  0  0  0  0  0  0  0  0  0  0  0
   -1.4340   -8.8120   -1.9400 H   0  0  0  0  0  0  0  0  0  0  0  0
   -0.0360    2.3330   -3.5540 H   0  0  0  0  0  0  0  0  0  0  0  0
    1.1710    1.1720   -4.1570 H   0  0  0  0  0  0  0  0  0  0  0  0
    1.6920    2.5870   -3.2110 H   0  0  0  0  0  0  0  0  0  0  0  0
    1.5400  -10.6670   -0.5990 H   0  0  0  0  0  0  0  0  0  0  0  0
    0.8760  -10.2510   -2.1970 H   0  0  0  0  0  0  0  0  0  0  0  0
   -0.1600  -11.0350   -0.9800 H   0  0  0  0  0  0  0  0  0  0  0  0
  1  3  2  0  0  0  0
  1  7  1  0  0  0  0
  1 11  1  0  0  0  0
  2  4  1  0  0  0  0
  2  6  1  0  0  0  0
  2 21  1  0  0  0  0
  3  9  1  0  0  0  0
  3 12  1  0  0  0  0
  4  5  2  0  0  0  0
  4 16  1  0  0  0  0
  5  8  1  0  0  0  0
  6  8  2  0  0  0  0
  6 14  1  0  0  0  0
  7 10  1  0  0  0  0
  9 10  2  0  0  0  0
  9 22  1  0  0  0  0
 10 26  1  0  0  0  0
 11 15  1  0  0  0  0
 11 28  1  0  0  0  0
 12 13  3  0  0  0  0
 14 18  1  0  0  0  0
 15 17  2  0  0  0  0
 15 18  1  0  0  0  0
 16 19  1  0  0  0  0
 16 20  2  0  0  0  0
 18 29  1  0  0  0  0
 18 30  1  0  0  0  0
 19 24  2  0  0  0  0
 19 31  1  0  0  0  0
 20 23  1  0  0  0  0
 20 32  1  0  0  0  0
 21 33  1  0  0  0  0
 21 34  1  0  0  0  0
 21 35  1  0  0  0  0
 22 36  1  0  0  0  0
 22 37  1  0  0  0  0
 22 38  1  0  0  0  0
 23 25  2  0  0  0  0
 23 39  1  0  0  0  0
 24 25  1  0  0  0  0
 24 40  1  0  0  0  0
 25 27  1  0  0  0  0
 26 41  1  0  0  0  0
 26 42  1  0  0  0  0
 26 43  1  0  0  0  0
 27 44  1  0  0  0  0
 27 45  1  0  0  0  0
 27 46  1  0  0  0  0
M  END
>  <$CLUSTER>
241

>  <INDEX>
127199

$$$$
Asinex ASN 03155338
  MOE2020           3D

 50 54  0  0  0  0  0  0  0  0999 V2000
   -0.3570    0.6220    0.5210 N   0  0  0  0  0  0  0  0  0  0  0  0
    0.6350    1.3840   -0.0780 C   0  0  0  0  0  0  0  0  0  0  0  0
    1.3440    0.6220   -0.8830 N   0  0  0  0  0  0  0  0  0  0  0  0
   -0.2180   -0.6260   -0.0280 C   0  0  0  0  0  0  0  0  0  0  0  0
    1.9020   -3.1170   -1.0090 N   0  0  0  0  0  0  0  0  0  0  0  0
   -1.3100    1.1980    1.4880 C   0  0  0  0  0  0  0  0  0  0  0  0
    0.8130   -0.6410   -0.8450 N   0  0  0  0  0  0  0  0  0  0  0  0
    0.7810    2.8080    0.1690 C   0  0  0  0  0  0  0  0  0  0  0  0
    3.2990   -3.2620   -0.7930 C   0  0  0  0  0  0  0  0  0  0  0  0
    0.8760   -3.5890   -0.2540 C   0  0  0  0  0  0  0  0  0  0  0  0
    0.0880    3.3680    1.2520 C   0  0  0  0  0  0  0  0  0  0  0  0
   -0.6880    2.4630    2.1750 C   0  0  0  0  0  0  0  0  0  0  0  0
   -1.2810   -1.9650    0.2390 S   0  0  0  0  0  0  0  0  0  0  0  0
    1.7660   -2.3200   -2.2860 C   0  0  0  0  0  0  0  0  0  0  0  0
    4.0420   -2.6400   -1.7930 C   0  0  0  0  0  0  0  0  0  0  0  0
   -0.5170   -3.2470   -0.7780 C   0  0  0  0  0  0  0  0  0  0  0  0
    1.0690   -4.2290    0.7780 O   0  0  0  0  0  0  0  0  0  0  0  0
    3.1660   -1.9960   -2.8150 C   0  0  0  0  0  0  0  0  0  0  0  0
   -1.6820    0.2420    2.6420 C   0  0  0  0  0  0  0  0  0  0  0  0
   -2.5940    1.6070    0.7360 C   0  0  0  0  0  0  0  0  0  0  0  0
    1.5730    3.6200   -0.6490 C   0  0  0  0  0  0  0  0  0  0  0  0
    3.9290   -3.9180    0.2510 C   0  0  0  0  0  0  0  0  0  0  0  0
    0.2050    4.7380    1.5160 C   0  0  0  0  0  0  0  0  0  0  0  0
    5.4340   -2.6590   -1.7750 C   0  0  0  0  0  0  0  0  0  0  0  0
    1.6740    4.9870   -0.3870 C   0  0  0  0  0  0  0  0  0  0  0  0
    5.3290   -3.9450    0.2810 C   0  0  0  0  0  0  0  0  0  0  0  0
    0.9900    5.5450    0.6920 C   0  0  0  0  0  0  0  0  0  0  0  0
    6.0770   -3.3200   -0.7260 C   0  0  0  0  0  0  0  0  0  0  0  0
   -0.0150    2.1240    2.9620 H   0  0  0  0  0  0  0  0  0  0  0  0
   -1.4990    3.0430    2.6150 H   0  0  0  0  0  0  0  0  0  0  0  0
    1.2270   -1.3940   -2.0850 H   0  0  0  0  0  0  0  0  0  0  0  0
    1.2200   -2.9050   -3.0270 H   0  0  0  0  0  0  0  0  0  0  0  0
   -1.1390   -4.1420   -0.7530 H   0  0  0  0  0  0  0  0  0  0  0  0
   -0.4360   -2.8890   -1.8040 H   0  0  0  0  0  0  0  0  0  0  0  0
    3.3330   -0.9200   -2.8580 H   0  0  0  0  0  0  0  0  0  0  0  0
    3.3260   -2.4290   -3.8030 H   0  0  0  0  0  0  0  0  0  0  0  0
   -0.7790   -0.0500    3.1770 H   0  0  0  0  0  0  0  0  0  0  0  0
   -2.1670   -0.6460    2.2360 H   0  0  0  0  0  0  0  0  0  0  0  0
   -2.3630    0.7470    3.3270 H   0  0  0  0  0  0  0  0  0  0  0  0
   -2.3370    2.2820   -0.0800 H   0  0  0  0  0  0  0  0  0  0  0  0
   -3.2730    2.1100    1.4240 H   0  0  0  0  0  0  0  0  0  0  0  0
   -3.0780    0.7170    0.3330 H   0  0  0  0  0  0  0  0  0  0  0  0
    2.1060    3.1890   -1.4830 H   0  0  0  0  0  0  0  0  0  0  0  0
    3.3520   -4.3990    1.0270 H   0  0  0  0  0  0  0  0  0  0  0  0
   -0.3130    5.1710    2.3590 H   0  0  0  0  0  0  0  0  0  0  0  0
    6.0030   -2.1740   -2.5540 H   0  0  0  0  0  0  0  0  0  0  0  0
    2.2830    5.6140   -1.0210 H   0  0  0  0  0  0  0  0  0  0  0  0
    5.8370   -4.4520    1.0880 H   0  0  0  0  0  0  0  0  0  0  0  0
    1.0680    6.6040    0.8900 H   0  0  0  0  0  0  0  0  0  0  0  0
    7.1560   -3.3500   -0.6910 H   0  0  0  0  0  0  0  0  0  0  0  0
  1  2  1  0  0  0  0
  1  4  1  0  0  0  0
  1  6  1  0  0  0  0
  2  3  2  0  0  0  0
  2  8  1  0  0  0  0
  3  7  1  0  0  0  0
  4  7  2  0  0  0  0
  4 13  1  0  0  0  0
  5  9  1  0  0  0  0
  5 10  1  0  0  0  0
  5 14  1  0  0  0  0
  6 12  1  0  0  0  0
  6 19  1  0  0  0  0
  6 20  1  0  0  0  0
  8 11  2  0  0  0  0
  8 21  1  0  0  0  0
  9 15  2  0  0  0  0
  9 22  1  0  0  0  0
 10 16  1  0  0  0  0
 10 17  2  0  0  0  0
 11 12  1  0  0  0  0
 11 23  1  0  0  0  0
 12 29  1  0  0  0  0
 12 30  1  0  0  0  0
 13 16  1  0  0  0  0
 14 18  1  0  0  0  0
 14 31  1  0  0  0  0
 14 32  1  0  0  0  0
 15 18  1  0  0  0  0
 15 24  1  0  0  0  0
 16 33  1  0  0  0  0
 16 34  1  0  0  0  0
 18 35  1  0  0  0  0
 18 36  1  0  0  0  0
 19 37  1  0  0  0  0
 19 38  1  0  0  0  0
 19 39  1  0  0  0  0
 20 40  1  0  0  0  0
 20 41  1  0  0  0  0
 20 42  1  0  0  0  0
 21 25  2  0  0  0  0
 21 43  1  0  0  0  0
 22 26  2  0  0  0  0
 22 44  1  0  0  0  0
 23 27  2  0  0  0  0
 23 45  1  0  0  0  0
 24 28  2  0  0  0  0
 24 46  1  0  0  0  0
 25 27  1  0  0  0  0
 25 47  1  0  0  0  0
 26 28  1  0  0  0  0
 26 48  1  0  0  0  0
 27 49  1  0  0  0  0
 28 50  1  0  0  0  0
M  END
>  <$CLUSTER>
242

>  <INDEX>
128841

$$$$
Chemical Block A3816/0161993
  MOE2020           3D

 44 47  0  0  0  0  0  0  0  0999 V2000
   -0.8780    0.0090    0.7430 C   0  0  0  0  0  0  0  0  0  0  0  0
    0.0220    1.0220    0.4730 C   0  0  0  0  0  0  0  0  0  0  0  0
   -0.6890   -0.9760   -0.1910 N   0  0  0  0  0  0  0  0  0  0  0  0
   -1.7630    0.0280    1.7560 N   0  0  0  0  0  0  0  0  0  0  0  0
    0.7900    0.6510   -0.6560 C   0  0  0  0  0  0  0  0  0  0  0  0
    0.0270    2.1170    1.2690 N   0  0  0  0  0  0  0  0  0  0  0  0
    0.3290   -0.6120   -1.0580 C   0  0  0  0  0  0  0  0  0  0  0  0
   -1.6490    1.1730    2.4660 C   0  0  0  0  0  0  0  0  0  0  0  0
   -0.8000    2.2130    2.2690 N   0  0  0  0  0  0  0  0  0  0  0  0
   -1.4500   -2.2130   -0.2540 C   0  0  0  0  0  0  0  0  0  0  0  0
   -2.7810    1.3690    3.8820 S   0  0  0  0  0  0  0  0  0  0  0  0
   -0.7860   -3.3370    0.5200 C   0  0  0  0  0  0  0  0  0  0  0  0
   -1.3580   -4.0240    1.4940 C   0  0  0  0  0  0  0  0  0  0  0  0
    1.8350    1.2620   -1.3770 C   0  0  0  0  0  0  0  0  0  0  0  0
    0.8880   -1.2820   -2.1590 C   0  0  0  0  0  0  0  0  0  0  0  0
   -1.7830   -2.3810    6.0580 C   0  0  0  0  0  0  0  0  0  0  0  0
   -2.5230   -1.3880    5.5680 O   0  0  0  0  0  0  0  0  0  0  0  0
   -3.7080   -0.1870    3.7880 C   0  0  0  0  0  0  0  0  0  0  0  0
   -2.8600   -1.3920    4.1750 C   0  0  0  0  0  0  0  0  0  0  0  0
   -1.5080   -2.2880    7.4270 C   0  0  0  0  0  0  0  0  0  0  0  0
   -1.2820   -3.4660    5.3330 C   0  0  0  0  0  0  0  0  0  0  0  0
    2.3910    0.5990   -2.4750 C   0  0  0  0  0  0  0  0  0  0  0  0
    1.9240   -0.6550   -2.8580 C   0  0  0  0  0  0  0  0  0  0  0  0
   -0.5150   -4.4430    5.9750 C   0  0  0  0  0  0  0  0  0  0  0  0
   -0.7430   -3.2640    8.0660 C   0  0  0  0  0  0  0  0  0  0  0  0
   -0.2460   -4.3440    7.3390 C   0  0  0  0  0  0  0  0  0  0  0  0
   -1.5440   -2.5140   -1.2970 H   0  0  0  0  0  0  0  0  0  0  0  0
   -2.4410   -2.0370    0.1640 H   0  0  0  0  0  0  0  0  0  0  0  0
    0.2290   -3.5950    0.2560 H   0  0  0  0  0  0  0  0  0  0  0  0
   -0.8110   -4.8100    1.9930 H   0  0  0  0  0  0  0  0  0  0  0  0
   -2.3720   -3.7990    1.7900 H   0  0  0  0  0  0  0  0  0  0  0  0
    2.2030    2.2340   -1.0840 H   0  0  0  0  0  0  0  0  0  0  0  0
    0.5270   -2.2550   -2.4570 H   0  0  0  0  0  0  0  0  0  0  0  0
   -4.0630   -0.3220    2.7660 H   0  0  0  0  0  0  0  0  0  0  0  0
   -4.5610   -0.1280    4.4640 H   0  0  0  0  0  0  0  0  0  0  0  0
   -3.4180   -2.3010    3.9510 H   0  0  0  0  0  0  0  0  0  0  0  0
   -1.9400   -1.3770    3.5910 H   0  0  0  0  0  0  0  0  0  0  0  0
   -1.8920   -1.4530    7.9940 H   0  0  0  0  0  0  0  0  0  0  0  0
   -1.4880   -3.5500    4.2760 H   0  0  0  0  0  0  0  0  0  0  0  0
    3.1910    1.0640   -3.0320 H   0  0  0  0  0  0  0  0  0  0  0  0
    2.3690   -1.1510   -3.7080 H   0  0  0  0  0  0  0  0  0  0  0  0
   -0.1290   -5.2790    5.4110 H   0  0  0  0  0  0  0  0  0  0  0  0
   -0.5360   -3.1830    9.1230 H   0  0  0  0  0  0  0  0  0  0  0  0
    0.3460   -5.1020    7.8310 H   0  0  0  0  0  0  0  0  0  0  0  0
  1  2  2  0  0  0  0
  1  3  1  0  0  0  0
  1  4  1  0  0  0  0
  2  5  1  0  0  0  0
  2  6  1  0  0  0  0
  3  7  1  0  0  0  0
  3 10  1  0  0  0  0
  4  8  2  0  0  0  0
  5  7  2  0  0  0  0
  5 14  1  0  0  0  0
  6  9  2  0  0  0  0
  7 15  1  0  0  0  0
  8  9  1  0  0  0  0
  8 11  1  0  0  0  0
 10 12  1  0  0  0  0
 10 27  1  0  0  0  0
 10 28  1  0  0  0  0
 11 18  1  0  0  0  0
 12 13  2  0  0  0  0
 12 29  1  0  0  0  0
 13 30  1  0  0  0  0
 13 31  1  0  0  0  0
 14 22  2  0  0  0  0
 14 32  1  0  0  0  0
 15 23  2  0  0  0  0
 15 33  1  0  0  0  0
 16 17  1  0  0  0  0
 16 20  1  0  0  0  0
 16 21  2  0  0  0  0
 17 19  1  0  0  0  0
 18 19  1  0  0  0  0
 18 34  1  0  0  0  0
 18 35  1  0  0  0  0
 19 36  1  0  0  0  0
 19 37  1  0  0  0  0
 20 25  2  0  0  0  0
 20 38  1  0  0  0  0
 21 24  1  0  0  0  0
 21 39  1  0  0  0  0
 22 23  1  0  0  0  0
 22 40  1  0  0  0  0
 23 41  1  0  0  0  0
 24 26  2  0  0  0  0
 24 42  1  0  0  0  0
 25 26  1  0  0  0  0
 25 43  1  0  0  0  0
 26 44  1  0  0  0  0
M  END
>  <$CLUSTER>
243

>  <INDEX>
120541

$$$$
Asinex ASN 06290999
  MOE2020           3D

 51 54  0  0  1  0  0  0  0  0999 V2000
    0.3360    0.5540    0.5820 N   0  0  0  0  0  0  0  0  0  0  0  0
   -0.2760    0.5460    1.8470 C   0  0  0  0  0  0  0  0  0  0  0  0
   -1.0230   -0.7020    2.2680 C   0  0  0  0  0  0  0  0  0  0  0  0
    0.7690    3.0040    0.2580 C   0  0  0  0  0  0  0  0  0  0  0  0
   -1.7720   -2.7570    1.8060 N   0  0  0  0  0  0  0  0  0  0  0  0
   -1.0750   -1.7460    1.3140 N   0  0  0  0  0  0  0  0  0  0  0  0
    1.3570    1.5880    0.2560 C   0  0  3  0  0  0  0  0  0  0  0  0
   -2.3440   -2.4620    3.3490 S   0  0  0  0  0  0  0  0  0  0  0  0
   -0.1730    3.2230   -0.7160 N   0  0  0  0  0  0  0  0  0  0  0  0
   -1.6470   -0.8970    3.4140 C   0  0  0  0  0  0  0  0  0  0  0  0
    0.0160   -0.3860   -0.4570 C   0  0  0  0  0  0  0  0  0  0  0  0
    1.0580    3.8820    1.0650 O   0  0  0  0  0  0  0  0  0  0  0  0
    2.5800    1.4910    1.1700 C   0  0  0  0  0  0  0  0  0  0  0  0
   -0.1930    1.4710    2.6600 O   0  0  0  0  0  0  0  0  0  0  0  0
    1.0280   -0.9760   -1.2300 C   0  0  0  0  0  0  0  0  0  0  0  0
   -1.3190   -0.7010   -0.7520 C   0  0  0  0  0  0  0  0  0  0  0  0
    2.4180    1.4700    2.5710 C   0  0  0  0  0  0  0  0  0  0  0  0
    3.8720    1.4570    0.6410 C   0  0  0  0  0  0  0  0  0  0  0  0
   -0.6160   -2.1880   -2.5230 C   0  0  0  0  0  0  0  0  0  0  0  0
    4.8160    1.3840    2.8670 C   0  0  0  0  0  0  0  0  0  0  0  0
   -0.8880    4.4510   -0.9540 C   0  0  0  0  0  0  0  0  0  0  0  0
   -1.6320   -1.5990   -1.7760 C   0  0  0  0  0  0  0  0  0  0  0  0
    3.5330    1.4170    3.4120 C   0  0  0  0  0  0  0  0  0  0  0  0
    4.9860    1.4040    1.4840 C   0  0  0  0  0  0  0  0  0  0  0  0
    0.7130   -1.8750   -2.2520 C   0  0  0  0  0  0  0  0  0  0  0  0
   -1.0000   -3.0380   -3.4760 F   0  0  0  0  0  0  0  0  0  0  0  0
    5.8250    1.3350    3.7380 F   0  0  0  0  0  0  0  0  0  0  0  0
   -2.2730    4.1850   -1.5340 C   0  0  0  0  0  0  0  0  0  0  0  0
   -0.0800    5.3690   -1.8660 C   0  0  0  0  0  0  0  0  0  0  0  0
   -2.5750    5.6250   -2.1000 C   0  0  0  0  0  0  0  0  0  0  0  0
   -1.2440    6.3480   -2.3040 C   0  0  0  0  0  0  0  0  0  0  0  0
    1.6920    1.3820   -0.7600 H   0  0  0  0  0  0  0  0  0  0  0  0
   -0.3860    2.4470   -1.3260 H   0  0  0  0  0  0  0  0  0  0  0  0
   -1.7070   -0.2020    4.2380 H   0  0  0  0  0  0  0  0  0  0  0  0
    2.0610   -0.7320   -1.0330 H   0  0  0  0  0  0  0  0  0  0  0  0
   -2.1140   -0.2440   -0.1810 H   0  0  0  0  0  0  0  0  0  0  0  0
    1.4260    1.4950    2.9970 H   0  0  0  0  0  0  0  0  0  0  0  0
    4.0120    1.4720   -0.4300 H   0  0  0  0  0  0  0  0  0  0  0  0
   -1.0270    4.9520    0.0040 H   0  0  0  0  0  0  0  0  0  0  0  0
   -2.6640   -1.8360   -1.9880 H   0  0  0  0  0  0  0  0  0  0  0  0
    3.4010    1.4020    4.4840 H   0  0  0  0  0  0  0  0  0  0  0  0
    5.9800    1.3790    1.0630 H   0  0  0  0  0  0  0  0  0  0  0  0
    1.5020   -2.3280   -2.8330 H   0  0  0  0  0  0  0  0  0  0  0  0
   -2.9880    3.8880   -0.7670 H   0  0  0  0  0  0  0  0  0  0  0  0
   -2.2500    3.4320   -2.3210 H   0  0  0  0  0  0  0  0  0  0  0  0
    0.3470    4.8330   -2.7140 H   0  0  0  0  0  0  0  0  0  0  0  0
    0.7130    5.8880   -1.3280 H   0  0  0  0  0  0  0  0  0  0  0  0
   -3.1900    6.1780   -1.3910 H   0  0  0  0  0  0  0  0  0  0  0  0
   -3.1010    5.5450   -3.0520 H   0  0  0  0  0  0  0  0  0  0  0  0
   -1.1260    6.6160   -3.3540 H   0  0  0  0  0  0  0  0  0  0  0  0
   -1.2170    7.2510   -1.6940 H   0  0  0  0  0  0  0  0  0  0  0  0
  1  2  1  0  0  0  0
  1  7  1  0  0  0  0
  1 11  1  0  0  0  0
  2  3  1  0  0  0  0
  2 14  2  0  0  0  0
  3  6  1  0  0  0  0
  3 10  2  0  0  0  0
  4  7  1  0  0  0  0
  4  9  1  0  0  0  0
  4 12  2  0  0  0  0
  5  6  2  0  0  0  0
  5  8  1  0  0  0  0
  7 13  1  0  0  0  0
  7 32  1  0  0  0  0
  8 10  1  0  0  0  0
  9 21  1  0  0  0  0
  9 33  1  0  0  0  0
 10 34  1  0  0  0  0
 11 15  1  0  0  0  0
 11 16  2  0  0  0  0
 13 17  2  0  0  0  0
 13 18  1  0  0  0  0
 15 25  2  0  0  0  0
 15 35  1  0  0  0  0
 16 22  1  0  0  0  0
 16 36  1  0  0  0  0
 17 23  1  0  0  0  0
 17 37  1  0  0  0  0
 18 24  2  0  0  0  0
 18 38  1  0  0  0  0
 19 22  2  0  0  0  0
 19 25  1  0  0  0  0
 19 26  1  0  0  0  0
 20 23  2  0  0  0  0
 20 24  1  0  0  0  0
 20 27  1  0  0  0  0
 21 28  1  0  0  0  0
 21 29  1  0  0  0  0
 21 39  1  0  0  0  0
 22 40  1  0  0  0  0
 23 41  1  0  0  0  0
 24 42  1  0  0  0  0
 25 43  1  0  0  0  0
 28 30  1  0  0  0  0
 28 44  1  0  0  0  0
 28 45  1  0  0  0  0
 29 31  1  0  0  0  0
 29 46  1  0  0  0  0
 29 47  1  0  0  0  0
 30 31  1  0  0  0  0
 30 48  1  0  0  0  0
 30 49  1  0  0  0  0
 31 50  1  0  0  0  0
 31 51  1  0  0  0  0
M  END
>  <$CLUSTER>
244

>  <INDEX>
157139

$$$$
Asinex ASN 06116813
  MOE2020           3D

 56 60  0  0  0  0  0  0  0  0999 V2000
    1.0680    0.5360   -0.4430 N   0  0  0  0  0  0  0  0  0  0  0  0
    0.2310    0.8730    0.6010 C   0  0  0  0  0  0  0  0  0  0  0  0
   -0.8890    0.0350    0.9090 C   0  0  0  0  0  0  0  0  0  0  0  0
    2.0410    1.4560   -0.5530 N   0  0  0  0  0  0  0  0  0  0  0  0
    1.8010    2.3360    0.4110 N   0  0  0  0  0  0  0  0  0  0  0  0
    0.6840    1.9890    1.1350 N   0  0  0  0  0  0  0  0  0  0  0  0
    0.9190   -0.5940   -1.2540 C   0  0  0  0  0  0  0  0  0  0  0  0
   -1.0700   -1.0750    0.1590 C   0  0  0  0  0  0  0  0  0  0  0  0
   -2.6300    1.5330    1.8200 N   0  0  0  0  0  0  0  0  0  0  0  0
   -2.2950    2.8050    2.2990 C   0  0  0  0  0  0  0  0  0  0  0  0
   -0.1730   -1.4250   -0.9540 C   0  0  0  0  0  0  0  0  0  0  0  0
   -1.8430    0.3240    2.0510 C   0  0  0  0  0  0  0  0  0  0  0  0
   -1.0160    2.9140    3.0930 C   0  0  0  0  0  0  0  0  0  0  0  0
   -3.8580    1.3850    1.0280 C   0  0  0  0  0  0  0  0  0  0  0  0
   -2.9820    3.8140    2.1190 O   0  0  0  0  0  0  0  0  0  0  0  0
   -0.3820    4.1460    3.1240 C   0  0  0  0  0  0  0  0  0  0  0  0
    1.7980   -0.8810   -2.2970 C   0  0  0  0  0  0  0  0  0  0  0  0
    0.8040    4.2900    3.8460 C   0  0  0  0  0  0  0  0  0  0  0  0
   -5.0550    1.0550    1.9060 C   0  0  0  0  0  0  0  0  0  0  0  0
   -0.3760   -2.5700   -1.7270 C   0  0  0  0  0  0  0  0  0  0  0  0
   -0.4950    1.8200    3.7750 C   0  0  0  0  0  0  0  0  0  0  0  0
    1.3510    5.5570    3.8060 O   0  0  0  0  0  0  0  0  0  0  0  0
    0.4990   -2.8690   -2.7760 C   0  0  0  0  0  0  0  0  0  0  0  0
    0.6920    1.9700    4.4980 C   0  0  0  0  0  0  0  0  0  0  0  0
    1.5800   -2.0280   -3.0590 C   0  0  0  0  0  0  0  0  0  0  0  0
    2.9440    0.0160   -2.5930 C   0  0  0  0  0  0  0  0  0  0  0  0
    1.3420    3.2020    4.5310 C   0  0  0  0  0  0  0  0  0  0  0  0
   -5.9500    2.0610    2.2930 C   0  0  0  0  0  0  0  0  0  0  0  0
   -5.2670   -0.2580    2.3490 C   0  0  0  0  0  0  0  0  0  0  0  0
    2.5620    5.7600    4.5250 C   0  0  0  0  0  0  0  0  0  0  0  0
   -6.3710   -0.5640    3.1490 C   0  0  0  0  0  0  0  0  0  0  0  0
   -7.0540    1.7530    3.0940 C   0  0  0  0  0  0  0  0  0  0  0  0
   -7.2650    0.4410    3.5190 C   0  0  0  0  0  0  0  0  0  0  0  0
   -1.9010   -1.7270    0.3840 H   0  0  0  0  0  0  0  0  0  0  0  0
   -1.2660    0.4500    2.9670 H   0  0  0  0  0  0  0  0  0  0  0  0
   -2.5220   -0.5210    2.1630 H   0  0  0  0  0  0  0  0  0  0  0  0
   -3.7180    0.5820    0.3050 H   0  0  0  0  0  0  0  0  0  0  0  0
   -4.0530    2.3190    0.5000 H   0  0  0  0  0  0  0  0  0  0  0  0
   -0.8020    4.9880    2.5940 H   0  0  0  0  0  0  0  0  0  0  0  0
   -1.2090   -3.2240   -1.5150 H   0  0  0  0  0  0  0  0  0  0  0  0
   -1.0010    0.8660    3.7470 H   0  0  0  0  0  0  0  0  0  0  0  0
    0.3390   -3.7550   -3.3720 H   0  0  0  0  0  0  0  0  0  0  0  0
    1.1070    1.1280    5.0330 H   0  0  0  0  0  0  0  0  0  0  0  0
    2.2490   -2.2680   -3.8720 H   0  0  0  0  0  0  0  0  0  0  0  0
    2.9430    0.8510   -1.8920 H   0  0  0  0  0  0  0  0  0  0  0  0
    2.8550    0.3960   -3.6110 H   0  0  0  0  0  0  0  0  0  0  0  0
    3.8760   -0.5400   -2.4940 H   0  0  0  0  0  0  0  0  0  0  0  0
    2.2610    3.3140    5.0870 H   0  0  0  0  0  0  0  0  0  0  0  0
   -5.7870    3.0790    1.9710 H   0  0  0  0  0  0  0  0  0  0  0  0
   -4.5730   -1.0370    2.0700 H   0  0  0  0  0  0  0  0  0  0  0  0
    2.8830    6.7950    4.4110 H   0  0  0  0  0  0  0  0  0  0  0  0
    3.3320    5.0960    4.1340 H   0  0  0  0  0  0  0  0  0  0  0  0
    2.3980    5.5450    5.5810 H   0  0  0  0  0  0  0  0  0  0  0  0
   -6.5320   -1.5790    3.4810 H   0  0  0  0  0  0  0  0  0  0  0  0
   -7.7440    2.5320    3.3840 H   0  0  0  0  0  0  0  0  0  0  0  0
   -8.1200    0.2030    4.1340 H   0  0  0  0  0  0  0  0  0  0  0  0
  1  2  1  0  0  0  0
  1  4  1  0  0  0  0
  1  7  1  0  0  0  0
  2  3  1  0  0  0  0
  2  6  2  0  0  0  0
  3  8  2  0  0  0  0
  3 12  1  0  0  0  0
  4  5  2  0  0  0  0
  5  6  1  0  0  0  0
  7 11  2  0  0  0  0
  7 17  1  0  0  0  0
  8 11  1  0  0  0  0
  8 34  1  0  0  0  0
  9 10  1  0  0  0  0
  9 12  1  0  0  0  0
  9 14  1  0  0  0  0
 10 13  1  0  0  0  0
 10 15  2  0  0  0  0
 11 20  1  0  0  0  0
 12 35  1  0  0  0  0
 12 36  1  0  0  0  0
 13 16  2  0  0  0  0
 13 21  1  0  0  0  0
 14 19  1  0  0  0  0
 14 37  1  0  0  0  0
 14 38  1  0  0  0  0
 16 18  1  0  0  0  0
 16 39  1  0  0  0  0
 17 25  2  0  0  0  0
 17 26  1  0  0  0  0
 18 22  1  0  0  0  0
 18 27  2  0  0  0  0
 19 28  1  0  0  0  0
 19 29  2  0  0  0  0
 20 23  2  0  0  0  0
 20 40  1  0  0  0  0
 21 24  2  0  0  0  0
 21 41  1  0  0  0  0
 22 30  1  0  0  0  0
 23 25  1  0  0  0  0
 23 42  1  0  0  0  0
 24 27  1  0  0  0  0
 24 43  1  0  0  0  0
 25 44  1  0  0  0  0
 26 45  1  0  0  0  0
 26 46  1  0  0  0  0
 26 47  1  0  0  0  0
 27 48  1  0  0  0  0
 28 32  2  0  0  0  0
 28 49  1  0  0  0  0
 29 31  1  0  0  0  0
 29 50  1  0  0  0  0
 30 51  1  0  0  0  0
 30 52  1  0  0  0  0
 30 53  1  0  0  0  0
 31 33  2  0  0  0  0
 31 54  1  0  0  0  0
 32 33  1  0  0  0  0
 32 55  1  0  0  0  0
 33 56  1  0  0  0  0
M  END
>  <$CLUSTER>
245

>  <INDEX>
154751

$$$$
Asinex ASN 06116690
  MOE2020           3D

 55 59  0  0  0  0  0  0  0  0999 V2000
    1.0680    0.5360   -0.4430 N   0  0  0  0  0  0  0  0  0  0  0  0
    0.2310    0.8730    0.6010 C   0  0  0  0  0  0  0  0  0  0  0  0
   -0.8890    0.0350    0.9090 C   0  0  0  0  0  0  0  0  0  0  0  0
    2.0410    1.4560   -0.5530 N   0  0  0  0  0  0  0  0  0  0  0  0
    1.8010    2.3360    0.4110 N   0  0  0  0  0  0  0  0  0  0  0  0
    0.6840    1.9890    1.1350 N   0  0  0  0  0  0  0  0  0  0  0  0
    0.9190   -0.5940   -1.2540 C   0  0  0  0  0  0  0  0  0  0  0  0
   -2.6300    1.5330    1.8200 N   0  0  0  0  0  0  0  0  0  0  0  0
   -1.0700   -1.0750    0.1590 C   0  0  0  0  0  0  0  0  0  0  0  0
   -3.7630    1.4290    0.9950 C   0  0  0  0  0  0  0  0  0  0  0  0
   -1.8430    0.3240    2.0510 C   0  0  0  0  0  0  0  0  0  0  0  0
   -0.1730   -1.4250   -0.9540 C   0  0  0  0  0  0  0  0  0  0  0  0
   -4.6070    2.6650    0.8090 C   0  0  0  0  0  0  0  0  0  0  0  0
   -4.0930    0.3860    0.4220 O   0  0  0  0  0  0  0  0  0  0  0  0
    1.7980   -0.8810   -2.2970 C   0  0  0  0  0  0  0  0  0  0  0  0
   -2.2290    2.7940    2.5100 C   0  0  0  0  0  0  0  0  0  0  0  0
   -5.3570    2.7710   -0.3420 C   0  0  0  0  0  0  0  0  0  0  0  0
   -4.6240    3.6650    1.7820 C   0  0  0  0  0  0  0  0  0  0  0  0
   -6.1480    3.9030   -0.5450 C   0  0  0  0  0  0  0  0  0  0  0  0
   -5.4190    4.7950    1.5740 C   0  0  0  0  0  0  0  0  0  0  0  0
   -0.3760   -2.5700   -1.7270 C   0  0  0  0  0  0  0  0  0  0  0  0
   -6.1780    4.9160    0.4120 C   0  0  0  0  0  0  0  0  0  0  0  0
    0.4990   -2.8690   -2.7760 C   0  0  0  0  0  0  0  0  0  0  0  0
    1.5800   -2.0280   -3.0590 C   0  0  0  0  0  0  0  0  0  0  0  0
    2.9440    0.0160   -2.5930 C   0  0  0  0  0  0  0  0  0  0  0  0
   -0.7440    3.1210    2.3510 C   0  0  0  0  0  0  0  0  0  0  0  0
   -2.6310    2.7540    3.9860 C   0  0  0  0  0  0  0  0  0  0  0  0
   -7.0240    6.1270    0.1900 C   0  0  0  0  0  0  0  0  0  0  0  0
   -1.7400    3.9440    4.4970 C   0  0  0  0  0  0  0  0  0  0  0  0
   -0.6020    4.1570    3.4990 C   0  0  0  0  0  0  0  0  0  0  0  0
   -1.9010   -1.7270    0.3840 H   0  0  0  0  0  0  0  0  0  0  0  0
   -1.2660    0.4500    2.9670 H   0  0  0  0  0  0  0  0  0  0  0  0
   -2.5220   -0.5210    2.1630 H   0  0  0  0  0  0  0  0  0  0  0  0
   -2.7710    3.6030    2.0200 H   0  0  0  0  0  0  0  0  0  0  0  0
   -5.3330    1.9840   -1.0810 H   0  0  0  0  0  0  0  0  0  0  0  0
   -4.0330    3.5670    2.6800 H   0  0  0  0  0  0  0  0  0  0  0  0
   -6.7380    3.9940   -1.4450 H   0  0  0  0  0  0  0  0  0  0  0  0
   -5.4450    5.5780    2.3170 H   0  0  0  0  0  0  0  0  0  0  0  0
   -1.2090   -3.2240   -1.5150 H   0  0  0  0  0  0  0  0  0  0  0  0
    0.3390   -3.7550   -3.3720 H   0  0  0  0  0  0  0  0  0  0  0  0
    2.2490   -2.2680   -3.8720 H   0  0  0  0  0  0  0  0  0  0  0  0
    2.9430    0.8510   -1.8920 H   0  0  0  0  0  0  0  0  0  0  0  0
    2.8550    0.3960   -3.6110 H   0  0  0  0  0  0  0  0  0  0  0  0
    3.8760   -0.5400   -2.4940 H   0  0  0  0  0  0  0  0  0  0  0  0
   -0.5230    3.5570    1.3770 H   0  0  0  0  0  0  0  0  0  0  0  0
   -0.1130    2.2460    2.5090 H   0  0  0  0  0  0  0  0  0  0  0  0
   -2.3660    1.8090    4.4590 H   0  0  0  0  0  0  0  0  0  0  0  0
   -3.6950    2.9460    4.1280 H   0  0  0  0  0  0  0  0  0  0  0  0
   -7.5390    6.0400   -0.7670 H   0  0  0  0  0  0  0  0  0  0  0  0
   -6.3920    7.0150    0.1830 H   0  0  0  0  0  0  0  0  0  0  0  0
   -7.7580    6.2090    0.9910 H   0  0  0  0  0  0  0  0  0  0  0  0
   -1.3300    3.7020    5.4770 H   0  0  0  0  0  0  0  0  0  0  0  0
   -2.3420    4.8500    4.5680 H   0  0  0  0  0  0  0  0  0  0  0  0
   -0.6570    5.1660    3.0910 H   0  0  0  0  0  0  0  0  0  0  0  0
    0.3560    4.0190    4.0010 H   0  0  0  0  0  0  0  0  0  0  0  0
  1  2  1  0  0  0  0
  1  4  1  0  0  0  0
  1  7  1  0  0  0  0
  2  3  1  0  0  0  0
  2  6  2  0  0  0  0
  3  9  2  0  0  0  0
  3 11  1  0  0  0  0
  4  5  2  0  0  0  0
  5  6  1  0  0  0  0
  7 12  2  0  0  0  0
  7 15  1  0  0  0  0
  8 10  1  0  0  0  0
  8 11  1  0  0  0  0
  8 16  1  0  0  0  0
  9 12  1  0  0  0  0
  9 31  1  0  0  0  0
 10 13  1  0  0  0  0
 10 14  2  0  0  0  0
 11 32  1  0  0  0  0
 11 33  1  0  0  0  0
 12 21  1  0  0  0  0
 13 17  2  0  0  0  0
 13 18  1  0  0  0  0
 15 24  2  0  0  0  0
 15 25  1  0  0  0  0
 16 26  1  0  0  0  0
 16 27  1  0  0  0  0
 16 34  1  0  0  0  0
 17 19  1  0  0  0  0
 17 35  1  0  0  0  0
 18 20  2  0  0  0  0
 18 36  1  0  0  0  0
 19 22  2  0  0  0  0
 19 37  1  0  0  0  0
 20 22  1  0  0  0  0
 20 38  1  0  0  0  0
 21 23  2  0  0  0  0
 21 39  1  0  0  0  0
 22 28  1  0  0  0  0
 23 24  1  0  0  0  0
 23 40  1  0  0  0  0
 24 41  1  0  0  0  0
 25 42  1  0  0  0  0
 25 43  1  0  0  0  0
 25 44  1  0  0  0  0
 26 30  1  0  0  0  0
 26 45  1  0  0  0  0
 26 46  1  0  0  0  0
 27 29  1  0  0  0  0
 27 47  1  0  0  0  0
 27 48  1  0  0  0  0
 28 49  1  0  0  0  0
 28 50  1  0  0  0  0
 28 51  1  0  0  0  0
 29 30  1  0  0  0  0
 29 52  1  0  0  0  0
 29 53  1  0  0  0  0
 30 54  1  0  0  0  0
 30 55  1  0  0  0  0
M  END
>  <$CLUSTER>
246

>  <INDEX>
154714

$$$$
Asinex ASN 06146755
  MOE2020           3D

 54 57  0  0  0  0  0  0  0  0999 V2000
   -1.6600    1.2410    1.4910 C   0  0  0  0  0  0  0  0  0  0  0  0
   -1.6180    1.7940    3.8510 N   0  0  0  0  0  0  0  0  0  0  0  0
   -1.0260    1.7000    2.6380 C   0  0  0  0  0  0  0  0  0  0  0  0
    1.1870   -0.1980    0.2990 C   0  0  0  0  0  0  0  0  0  0  0  0
   -2.9060    1.4000    3.9270 C   0  0  0  0  0  0  0  0  0  0  0  0
   -0.1810   -0.1080    0.0310 N   0  0  0  0  0  0  0  0  0  0  0  0
   -3.6290    0.9150    2.8510 C   0  0  0  0  0  0  0  0  0  0  0  0
   -3.5600    1.4780    5.1830 C   0  0  0  0  0  0  0  0  0  0  0  0
   -0.9710    1.1270    0.1400 C   0  0  0  0  0  0  0  0  0  0  0  0
   -4.8910    1.0840    5.3310 C   0  0  0  0  0  0  0  0  0  0  0  0
   -2.9880    0.8330    1.6190 C   0  0  0  0  0  0  0  0  0  0  0  0
   -5.6000    0.6020    4.2350 C   0  0  0  0  0  0  0  0  0  0  0  0
   -4.9760    0.5150    2.9910 C   0  0  0  0  0  0  0  0  0  0  0  0
    1.8770    1.0660    0.7510 C   0  0  0  0  0  0  0  0  0  0  0  0
   -5.6250    1.1060    6.4470 O   0  0  0  0  0  0  0  0  0  0  0  0
   -6.8510    0.2700    4.5410 O   0  0  0  0  0  0  0  0  0  0  0  0
   -6.8810    0.5870    5.9510 C   0  0  0  0  0  0  0  0  0  0  0  0
    1.8450   -1.2350    0.1760 O   0  0  0  0  0  0  0  0  0  0  0  0
    3.0280    0.9340    1.5110 C   0  0  0  0  0  0  0  0  0  0  0  0
    1.3780    2.3190    0.4110 C   0  0  0  0  0  0  0  0  0  0  0  0
    0.6200    2.2100    2.6600 Cl  0  0  0  0  0  0  0  0  0  0  0  0
    3.2060    3.3420    1.6230 C   0  0  0  0  0  0  0  0  0  0  0  0
    2.0510    3.4620    0.8520 C   0  0  0  0  0  0  0  0  0  0  0  0
    3.6950    2.0790    1.9500 C   0  0  0  0  0  0  0  0  0  0  0  0
   -0.8980   -1.3140   -0.3950 C   0  0  0  0  0  0  0  0  0  0  0  0
    3.9540    4.3940    2.1130 O   0  0  0  0  0  0  0  0  0  0  0  0
    0.4340   -1.4980   -2.4280 O   0  0  0  0  0  0  0  0  0  0  0  0
   -0.9040   -1.4580   -1.9090 C   0  0  0  0  0  0  0  0  0  0  0  0
    3.5020    5.7120    1.8080 C   0  0  0  0  0  0  0  0  0  0  0  0
    0.4700   -1.6300   -3.8170 C   0  0  0  0  0  0  0  0  0  0  0  0
    4.4680    6.6960    2.4460 C   0  0  0  0  0  0  0  0  0  0  0  0
   -3.0180    1.8490    6.0410 H   0  0  0  0  0  0  0  0  0  0  0  0
   -0.3080    1.9820    0.0090 H   0  0  0  0  0  0  0  0  0  0  0  0
   -1.7290    1.1310   -0.6440 H   0  0  0  0  0  0  0  0  0  0  0  0
   -3.5200    0.4530    0.7590 H   0  0  0  0  0  0  0  0  0  0  0  0
   -5.5220    0.1430    2.1370 H   0  0  0  0  0  0  0  0  0  0  0  0
   -7.6560    1.3350    6.1210 H   0  0  0  0  0  0  0  0  0  0  0  0
   -7.1230   -0.3200    6.5050 H   0  0  0  0  0  0  0  0  0  0  0  0
    3.4060   -0.0460    1.7620 H   0  0  0  0  0  0  0  0  0  0  0  0
    0.4820    2.4080   -0.1860 H   0  0  0  0  0  0  0  0  0  0  0  0
    1.6750    4.4410    0.5950 H   0  0  0  0  0  0  0  0  0  0  0  0
    4.5920    1.9860    2.5440 H   0  0  0  0  0  0  0  0  0  0  0  0
   -1.9270   -1.2570   -0.0410 H   0  0  0  0  0  0  0  0  0  0  0  0
   -0.4120   -2.1870    0.0410 H   0  0  0  0  0  0  0  0  0  0  0  0
   -1.4300   -0.6090   -2.3460 H   0  0  0  0  0  0  0  0  0  0  0  0
   -1.4180   -2.3810   -2.1770 H   0  0  0  0  0  0  0  0  0  0  0  0
    2.5000    5.8620    2.2110 H   0  0  0  0  0  0  0  0  0  0  0  0
    3.4850    5.8570    0.7280 H   0  0  0  0  0  0  0  0  0  0  0  0
    1.5070   -1.6550   -4.1530 H   0  0  0  0  0  0  0  0  0  0  0  0
   -0.0410   -0.7830   -4.2760 H   0  0  0  0  0  0  0  0  0  0  0  0
   -0.0280   -2.5550   -4.1070 H   0  0  0  0  0  0  0  0  0  0  0  0
    4.4800    6.5450    3.5250 H   0  0  0  0  0  0  0  0  0  0  0  0
    4.1480    7.7140    2.2250 H   0  0  0  0  0  0  0  0  0  0  0  0
    5.4690    6.5340    2.0460 H   0  0  0  0  0  0  0  0  0  0  0  0
  1  3  2  0  0  0  0
  1  9  1  0  0  0  0
  1 11  1  0  0  0  0
  2  3  1  0  0  0  0
  2  5  2  0  0  0  0
  3 21  1  0  0  0  0
  4  6  1  0  0  0  0
  4 14  1  0  0  0  0
  4 18  2  0  0  0  0
  5  7  1  0  0  0  0
  5  8  1  0  0  0  0
  6  9  1  0  0  0  0
  6 25  1  0  0  0  0
  7 11  2  0  0  0  0
  7 13  1  0  0  0  0
  8 10  2  0  0  0  0
  8 32  1  0  0  0  0
  9 33  1  0  0  0  0
  9 34  1  0  0  0  0
 10 12  1  0  0  0  0
 10 15  1  0  0  0  0
 11 35  1  0  0  0  0
 12 13  2  0  0  0  0
 12 16  1  0  0  0  0
 13 36  1  0  0  0  0
 14 19  1  0  0  0  0
 14 20  2  0  0  0  0
 15 17  1  0  0  0  0
 16 17  1  0  0  0  0
 17 37  1  0  0  0  0
 17 38  1  0  0  0  0
 19 24  2  0  0  0  0
 19 39  1  0  0  0  0
 20 23  1  0  0  0  0
 20 40  1  0  0  0  0
 22 23  2  0  0  0  0
 22 24  1  0  0  0  0
 22 26  1  0  0  0  0
 23 41  1  0  0  0  0
 24 42  1  0  0  0  0
 25 28  1  0  0  0  0
 25 43  1  0  0  0  0
 25 44  1  0  0  0  0
 26 29  1  0  0  0  0
 27 28  1  0  0  0  0
 27 30  1  0  0  0  0
 28 45  1  0  0  0  0
 28 46  1  0  0  0  0
 29 31  1  0  0  0  0
 29 47  1  0  0  0  0
 29 48  1  0  0  0  0
 30 49  1  0  0  0  0
 30 50  1  0  0  0  0
 30 51  1  0  0  0  0
 31 52  1  0  0  0  0
 31 53  1  0  0  0  0
 31 54  1  0  0  0  0
M  END
>  <$CLUSTER>
247

>  <INDEX>
155525

$$$$
Asinex ASN 06153608
  MOE2020           3D

 56 58  0  0  0  0  0  0  0  0999 V2000
    0.0450   -0.8680   -0.3550 C   0  0  0  0  0  0  0  0  0  0  0  0
   -0.2870   -0.1110    0.7650 C   0  0  0  0  0  0  0  0  0  0  0  0
    0.8950    0.0300   -1.5200 S   0  0  0  0  0  0  0  0  0  0  0  0
    0.1540    1.2580    0.6080 C   0  0  0  0  0  0  0  0  0  0  0  0
    0.8150    1.4440   -0.5920 C   0  0  0  0  0  0  0  0  0  0  0  0
   -0.2410   -2.2150   -0.5530 N   0  0  0  0  0  0  0  0  0  0  0  0
   -1.0190   -0.6800    1.9000 C   0  0  0  0  0  0  0  0  0  0  0  0
    0.6760   -5.3300   -1.0500 N   0  0  0  0  0  0  0  0  0  0  0  0
    0.0910   -2.9880   -1.6600 C   0  0  0  0  0  0  0  0  0  0  0  0
    1.4430   -6.1050   -1.9130 C   0  0  0  0  0  0  0  0  0  0  0  0
   -0.4000   -4.4050   -1.4900 C   0  0  0  0  0  0  0  0  0  0  0  0
    0.9300   -5.3910    0.3890 C   0  0  0  0  0  0  0  0  0  0  0  0
   -1.9090   -1.5150    1.7580 O   0  0  0  0  0  0  0  0  0  0  0  0
    0.6950   -2.6550   -2.6740 O   0  0  0  0  0  0  0  0  0  0  0  0
    2.3220   -6.8830   -1.5320 O   0  0  0  0  0  0  0  0  0  0  0  0
   -0.6080   -0.2450    3.1410 N   0  0  0  0  0  0  0  0  0  0  0  0
    0.0760   -6.4550    1.0610 C   0  0  0  0  0  0  0  0  0  0  0  0
   -1.5020   -8.4110    2.3090 C   0  0  0  0  0  0  0  0  0  0  0  0
   -0.0490    2.4050    1.5600 C   0  0  0  0  0  0  0  0  0  0  0  0
    1.3650    2.7430   -1.0960 C   0  0  0  0  0  0  0  0  0  0  0  0
   -2.3150   -9.2800    2.9100 F   0  0  0  0  0  0  0  0  0  0  0  0
    0.6120   -7.7150    1.3590 C   0  0  0  0  0  0  0  0  0  0  0  0
   -1.2640   -6.1900    1.3810 C   0  0  0  0  0  0  0  0  0  0  0  0
   -0.1740   -8.6880    1.9830 C   0  0  0  0  0  0  0  0  0  0  0  0
   -2.0480   -7.1640    2.0060 C   0  0  0  0  0  0  0  0  0  0  0  0
    1.1510   -5.9840   -3.3890 C   0  0  0  0  0  0  0  0  0  0  0  0
    1.9740   -6.8180   -4.2840 C   0  0  0  0  0  0  0  0  0  0  0  0
    0.1420    3.7670    0.8760 C   0  0  0  0  0  0  0  0  0  0  0  0
    1.4190    3.7880    0.0280 C   0  0  0  0  0  0  0  0  0  0  0  0
    1.6520   -6.6680   -5.7480 C   0  0  0  0  0  0  0  0  0  0  0  0
   -0.7440   -2.6820    0.1880 H   0  0  0  0  0  0  0  0  0  0  0  0
   -1.1950   -4.4130   -0.7440 H   0  0  0  0  0  0  0  0  0  0  0  0
   -0.7940   -4.7550   -2.4440 H   0  0  0  0  0  0  0  0  0  0  0  0
    0.7000   -4.4210    0.8310 H   0  0  0  0  0  0  0  0  0  0  0  0
    1.9820   -5.6250    0.5530 H   0  0  0  0  0  0  0  0  0  0  0  0
   -1.0420   -0.6140    3.9750 H   0  0  0  0  0  0  0  0  0  0  0  0
    0.1270    0.4430    3.2170 H   0  0  0  0  0  0  0  0  0  0  0  0
    0.6700    2.3170    2.3740 H   0  0  0  0  0  0  0  0  0  0  0  0
   -1.0610    2.3530    1.9620 H   0  0  0  0  0  0  0  0  0  0  0  0
    0.7260    3.1140   -1.8980 H   0  0  0  0  0  0  0  0  0  0  0  0
    2.3720    2.5790   -1.4800 H   0  0  0  0  0  0  0  0  0  0  0  0
    1.6380   -7.9360    1.1050 H   0  0  0  0  0  0  0  0  0  0  0  0
   -1.6920   -5.2280    1.1430 H   0  0  0  0  0  0  0  0  0  0  0  0
    0.2470   -9.6550    2.2130 H   0  0  0  0  0  0  0  0  0  0  0  0
   -3.0770   -6.9510    2.2540 H   0  0  0  0  0  0  0  0  0  0  0  0
    1.3000   -4.9420   -3.6740 H   0  0  0  0  0  0  0  0  0  0  0  0
    0.1070   -6.2570   -3.5450 H   0  0  0  0  0  0  0  0  0  0  0  0
    1.8260   -7.8620   -4.0080 H   0  0  0  0  0  0  0  0  0  0  0  0
    3.0190   -6.5470   -4.1360 H   0  0  0  0  0  0  0  0  0  0  0  0
    0.2100    4.5420    1.6400 H   0  0  0  0  0  0  0  0  0  0  0  0
   -0.7150    3.9650    0.2330 H   0  0  0  0  0  0  0  0  0  0  0  0
    1.5350    4.7780   -0.4140 H   0  0  0  0  0  0  0  0  0  0  0  0
    2.2740    3.5740    0.6700 H   0  0  0  0  0  0  0  0  0  0  0  0
    0.6090   -6.9340   -5.9200 H   0  0  0  0  0  0  0  0  0  0  0  0
    2.2960   -7.3270   -6.3310 H   0  0  0  0  0  0  0  0  0  0  0  0
    1.8180   -5.6350   -6.0530 H   0  0  0  0  0  0  0  0  0  0  0  0
  1  2  2  0  0  0  0
  1  3  1  0  0  0  0
  1  6  1  0  0  0  0
  2  4  1  0  0  0  0
  2  7  1  0  0  0  0
  3  5  1  0  0  0  0
  4  5  2  0  0  0  0
  4 19  1  0  0  0  0
  5 20  1  0  0  0  0
  6  9  1  0  0  0  0
  6 31  1  0  0  0  0
  7 13  2  0  0  0  0
  7 16  1  0  0  0  0
  8 10  1  0  0  0  0
  8 11  1  0  0  0  0
  8 12  1  0  0  0  0
  9 11  1  0  0  0  0
  9 14  2  0  0  0  0
 10 15  2  0  0  0  0
 10 26  1  0  0  0  0
 11 32  1  0  0  0  0
 11 33  1  0  0  0  0
 12 17  1  0  0  0  0
 12 34  1  0  0  0  0
 12 35  1  0  0  0  0
 16 36  1  0  0  0  0
 16 37  1  0  0  0  0
 17 22  2  0  0  0  0
 17 23  1  0  0  0  0
 18 21  1  0  0  0  0
 18 24  2  0  0  0  0
 18 25  1  0  0  0  0
 19 28  1  0  0  0  0
 19 38  1  0  0  0  0
 19 39  1  0  0  0  0
 20 29  1  0  0  0  0
 20 40  1  0  0  0  0
 20 41  1  0  0  0  0
 22 24  1  0  0  0  0
 22 42  1  0  0  0  0
 23 25  2  0  0  0  0
 23 43  1  0  0  0  0
 24 44  1  0  0  0  0
 25 45  1  0  0  0  0
 26 27  1  0  0  0  0
 26 46  1  0  0  0  0
 26 47  1  0  0  0  0
 27 30  1  0  0  0  0
 27 48  1  0  0  0  0
 27 49  1  0  0  0  0
 28 29  1  0  0  0  0
 28 50  1  0  0  0  0
 28 51  1  0  0  0  0
 29 52  1  0  0  0  0
 29 53  1  0  0  0  0
 30 54  1  0  0  0  0
 30 55  1  0  0  0  0
 30 56  1  0  0  0  0
M  END
>  <$CLUSTER>
248

>  <INDEX>
155657

$$$$
Asinex ASN 06217805
  MOE2020           3D

 41 44  0  0  0  0  0  0  0  0999 V2000
    0.2900    1.5790   -1.5560 C   0  0  0  0  0  0  0  0  0  0  0  0
   -0.3610    1.9110   -2.7590 C   0  0  0  0  0  0  0  0  0  0  0  0
    0.1740    2.9080   -3.5700 C   0  0  0  0  0  0  0  0  0  0  0  0
   -0.3120    0.5310   -0.6590 C   0  0  0  0  0  0  0  0  0  0  0  0
    1.9590    3.2550   -1.9800 N   0  0  0  0  0  0  0  0  0  0  0  0
    1.4100    2.2820   -1.2150 C   0  0  0  0  0  0  0  0  0  0  0  0
   -1.4300   -0.0490    4.1000 C   0  0  0  0  0  0  0  0  0  0  0  0
    1.3260    3.5420   -3.1390 C   0  0  0  0  0  0  0  0  0  0  0  0
    0.6500   -0.2130    0.0020 N   0  0  0  0  0  0  0  0  0  0  0  0
   -0.3420    0.2290    4.9290 C   0  0  0  0  0  0  0  0  0  0  0  0
   -2.6020    0.1980    4.6930 O   0  0  0  0  0  0  0  0  0  0  0  0
   -0.4190    3.2840   -4.8110 C   0  0  0  0  0  0  0  0  0  0  0  0
   -0.7200    0.6850    6.1260 O   0  0  0  0  0  0  0  0  0  0  0  0
   -2.1590    0.6670    5.9870 C   0  0  0  0  0  0  0  0  0  0  0  0
   -1.5270    0.3960   -0.5410 O   0  0  0  0  0  0  0  0  0  0  0  0
   -1.2180   -0.5330    2.8050 C   0  0  0  0  0  0  0  0  0  0  0  0
    0.9580    0.0290    4.4640 C   0  0  0  0  0  0  0  0  0  0  0  0
    1.8840    4.5730   -3.9480 C   0  0  0  0  0  0  0  0  0  0  0  0
   -1.4890    1.2480   -3.1600 O   0  0  0  0  0  0  0  0  0  0  0  0
    0.0860   -0.7480    2.3290 C   0  0  0  0  0  0  0  0  0  0  0  0
    0.3200   -1.2800    0.9270 C   0  0  0  0  0  0  0  0  0  0  0  0
    0.1420    4.2920   -5.5930 C   0  0  0  0  0  0  0  0  0  0  0  0
    1.1710   -0.4540    3.1700 C   0  0  0  0  0  0  0  0  0  0  0  0
    1.2960    4.9370   -5.1610 C   0  0  0  0  0  0  0  0  0  0  0  0
   -0.4960    4.6740   -6.8870 C   0  0  0  0  0  0  0  0  0  0  0  0
    1.8880    2.0470   -0.2760 H   0  0  0  0  0  0  0  0  0  0  0  0
    1.6240   -0.0040   -0.1670 H   0  0  0  0  0  0  0  0  0  0  0  0
   -1.3130    2.7820   -5.1490 H   0  0  0  0  0  0  0  0  0  0  0  0
   -2.5730    0.0110    6.7530 H   0  0  0  0  0  0  0  0  0  0  0  0
   -2.5340    1.6800    6.1350 H   0  0  0  0  0  0  0  0  0  0  0  0
   -2.0630   -0.7430    2.1660 H   0  0  0  0  0  0  0  0  0  0  0  0
    1.8000    0.2470    5.1040 H   0  0  0  0  0  0  0  0  0  0  0  0
    2.7770    5.0820   -3.6170 H   0  0  0  0  0  0  0  0  0  0  0  0
   -1.8460    1.5290   -4.0060 H   0  0  0  0  0  0  0  0  0  0  0  0
    1.1430   -1.9940    0.9520 H   0  0  0  0  0  0  0  0  0  0  0  0
   -0.5850   -1.7800    0.5820 H   0  0  0  0  0  0  0  0  0  0  0  0
    2.1800   -0.6020    2.8140 H   0  0  0  0  0  0  0  0  0  0  0  0
    1.7370    5.7180   -5.7630 H   0  0  0  0  0  0  0  0  0  0  0  0
   -1.3820    4.0610   -7.0500 H   0  0  0  0  0  0  0  0  0  0  0  0
    0.2110    4.5150   -7.7010 H   0  0  0  0  0  0  0  0  0  0  0  0
   -0.7830    5.7250   -6.8540 H   0  0  0  0  0  0  0  0  0  0  0  0
  1  2  2  0  0  0  0
  1  4  1  0  0  0  0
  1  6  1  0  0  0  0
  2  3  1  0  0  0  0
  2 19  1  0  0  0  0
  3  8  2  0  0  0  0
  3 12  1  0  0  0  0
  4  9  1  0  0  0  0
  4 15  2  0  0  0  0
  5  6  2  0  0  0  0
  5  8  1  0  0  0  0
  6 26  1  0  0  0  0
  7 10  2  0  0  0  0
  7 11  1  0  0  0  0
  7 16  1  0  0  0  0
  8 18  1  0  0  0  0
  9 21  1  0  0  0  0
  9 27  1  0  0  0  0
 10 13  1  0  0  0  0
 10 17  1  0  0  0  0
 11 14  1  0  0  0  0
 12 22  2  0  0  0  0
 12 28  1  0  0  0  0
 13 14  1  0  0  0  0
 14 29  1  0  0  0  0
 14 30  1  0  0  0  0
 16 20  2  0  0  0  0
 16 31  1  0  0  0  0
 17 23  2  0  0  0  0
 17 32  1  0  0  0  0
 18 24  2  0  0  0  0
 18 33  1  0  0  0  0
 19 34  1  0  0  0  0
 20 21  1  0  0  0  0
 20 23  1  0  0  0  0
 21 35  1  0  0  0  0
 21 36  1  0  0  0  0
 22 24  1  0  0  0  0
 22 25  1  0  0  0  0
 23 37  1  0  0  0  0
 24 38  1  0  0  0  0
 25 39  1  0  0  0  0
 25 40  1  0  0  0  0
 25 41  1  0  0  0  0
M  END
>  <$CLUSTER>
249

>  <INDEX>
155962

$$$$
Asinex ASN 06235439
  MOE2020           3D

 55 57  0  0  0  0  0  0  0  0999 V2000
   -1.4640    2.6350    0.7810 C   0  0  0  0  0  0  0  0  0  0  0  0
   -1.1630    1.3380    0.4970 N   0  0  0  0  0  0  0  0  0  0  0  0
    2.2530   -2.7210   -0.3780 C   0  0  0  0  0  0  0  0  0  0  0  0
   -1.5350    2.9490    2.1220 N   0  0  0  0  0  0  0  0  0  0  0  0
    1.8860   -1.4190   -0.6350 N   0  0  0  0  0  0  0  0  0  0  0  0
   -1.8090    4.1250    2.8160 C   0  0  0  0  0  0  0  0  0  0  0  0
    3.6650   -3.0050   -0.8130 C   0  0  0  0  0  0  0  0  0  0  0  0
   -1.6830    3.4960   -0.0740 O   0  0  0  0  0  0  0  0  0  0  0  0
   -1.1890    0.8160   -0.8750 C   0  0  0  0  0  0  0  0  0  0  0  0
   -0.8030    0.2860    1.4560 C   0  0  0  0  0  0  0  0  0  0  0  0
    1.5510   -3.5750    0.1570 O   0  0  0  0  0  0  0  0  0  0  0  0
    0.5640   -0.8880   -0.2950 C   0  0  0  0  0  0  0  0  0  0  0  0
    0.1530    0.2080   -1.2790 C   0  0  0  0  0  0  0  0  0  0  0  0
    0.5520   -0.3410    1.1330 C   0  0  0  0  0  0  0  0  0  0  0  0
   -2.3730    6.4820    2.9060 C   0  0  0  0  0  0  0  0  0  0  0  0
   -2.0620    5.2560    4.9560 C   0  0  0  0  0  0  0  0  0  0  0  0
   -1.7930    4.1020    4.2180 C   0  0  0  0  0  0  0  0  0  0  0  0
   -2.1010    5.3270    2.1650 C   0  0  0  0  0  0  0  0  0  0  0  0
    4.3130   -4.0860   -0.1420 C   0  0  0  0  0  0  0  0  0  0  0  0
    4.3080   -2.3580   -1.8340 C   0  0  0  0  0  0  0  0  0  0  0  0
   -2.3520    6.4480    4.2980 C   0  0  0  0  0  0  0  0  0  0  0  0
    6.2640   -3.7510   -1.5280 C   0  0  0  0  0  0  0  0  0  0  0  0
    5.6110   -2.7150   -2.1940 C   0  0  0  0  0  0  0  0  0  0  0  0
    5.6140   -4.4370   -0.5040 C   0  0  0  0  0  0  0  0  0  0  0  0
    7.5370   -4.2020   -1.7970 O   0  0  0  0  0  0  0  0  0  0  0  0
   -2.6850    7.7630    2.1980 C   0  0  0  0  0  0  0  0  0  0  0  0
   -2.0370    5.2080    6.4480 C   0  0  0  0  0  0  0  0  0  0  0  0
    8.2490   -3.5410   -2.8370 C   0  0  0  0  0  0  0  0  0  0  0  0
   -1.3500    2.1620    2.7270 H   0  0  0  0  0  0  0  0  0  0  0  0
    2.5560   -0.8050   -1.0760 H   0  0  0  0  0  0  0  0  0  0  0  0
   -1.4260    1.6320   -1.5580 H   0  0  0  0  0  0  0  0  0  0  0  0
   -1.9590    0.0480   -0.9450 H   0  0  0  0  0  0  0  0  0  0  0  0
   -1.5660   -0.4920    1.4290 H   0  0  0  0  0  0  0  0  0  0  0  0
   -0.7610    0.7200    2.4550 H   0  0  0  0  0  0  0  0  0  0  0  0
   -0.1540   -1.7050   -0.3620 H   0  0  0  0  0  0  0  0  0  0  0  0
    0.9130    0.9890   -1.2840 H   0  0  0  0  0  0  0  0  0  0  0  0
    0.0660   -0.2210   -2.2770 H   0  0  0  0  0  0  0  0  0  0  0  0
    0.7450   -1.1560    1.8310 H   0  0  0  0  0  0  0  0  0  0  0  0
    1.3300    0.4160    1.2340 H   0  0  0  0  0  0  0  0  0  0  0  0
   -1.5700    3.1800    4.7330 H   0  0  0  0  0  0  0  0  0  0  0  0
   -2.1170    5.3640    1.0860 H   0  0  0  0  0  0  0  0  0  0  0  0
    3.8000   -4.6270    0.6390 H   0  0  0  0  0  0  0  0  0  0  0  0
    3.8040   -1.5650   -2.3660 H   0  0  0  0  0  0  0  0  0  0  0  0
   -2.5600    7.3430    4.8650 H   0  0  0  0  0  0  0  0  0  0  0  0
    6.1130   -2.1860   -2.9910 H   0  0  0  0  0  0  0  0  0  0  0  0
    6.1180   -5.2420    0.0100 H   0  0  0  0  0  0  0  0  0  0  0  0
   -2.6560    7.5990    1.1210 H   0  0  0  0  0  0  0  0  0  0  0  0
   -1.9470    8.5180    2.4710 H   0  0  0  0  0  0  0  0  0  0  0  0
   -3.6790    8.1050    2.4870 H   0  0  0  0  0  0  0  0  0  0  0  0
   -1.7930    4.1970    6.7750 H   0  0  0  0  0  0  0  0  0  0  0  0
   -3.0150    5.4900    6.8370 H   0  0  0  0  0  0  0  0  0  0  0  0
   -1.2840    5.9020    6.8210 H   0  0  0  0  0  0  0  0  0  0  0  0
    9.2350   -3.9920   -2.9460 H   0  0  0  0  0  0  0  0  0  0  0  0
    8.3580   -2.4850   -2.5890 H   0  0  0  0  0  0  0  0  0  0  0  0
    7.6990   -3.6390   -3.7730 H   0  0  0  0  0  0  0  0  0  0  0  0
  1  2  1  0  0  0  0
  1  4  1  0  0  0  0
  1  8  2  0  0  0  0
  2  9  1  0  0  0  0
  2 10  1  0  0  0  0
  3  5  1  0  0  0  0
  3  7  1  0  0  0  0
  3 11  2  0  0  0  0
  4  6  1  0  0  0  0
  4 29  1  0  0  0  0
  5 12  1  0  0  0  0
  5 30  1  0  0  0  0
  6 17  2  0  0  0  0
  6 18  1  0  0  0  0
  7 19  1  0  0  0  0
  7 20  2  0  0  0  0
  9 13  1  0  0  0  0
  9 31  1  0  0  0  0
  9 32  1  0  0  0  0
 10 14  1  0  0  0  0
 10 33  1  0  0  0  0
 10 34  1  0  0  0  0
 12 13  1  0  0  0  0
 12 14  1  0  0  0  0
 12 35  1  0  0  0  0
 13 36  1  0  0  0  0
 13 37  1  0  0  0  0
 14 38  1  0  0  0  0
 14 39  1  0  0  0  0
 15 18  2  0  0  0  0
 15 21  1  0  0  0  0
 15 26  1  0  0  0  0
 16 17  1  0  0  0  0
 16 21  2  0  0  0  0
 16 27  1  0  0  0  0
 17 40  1  0  0  0  0
 18 41  1  0  0  0  0
 19 24  2  0  0  0  0
 19 42  1  0  0  0  0
 20 23  1  0  0  0  0
 20 43  1  0  0  0  0
 21 44  1  0  0  0  0
 22 23  2  0  0  0  0
 22 24  1  0  0  0  0
 22 25  1  0  0  0  0
 23 45  1  0  0  0  0
 24 46  1  0  0  0  0
 25 28  1  0  0  0  0
 26 47  1  0  0  0  0
 26 48  1  0  0  0  0
 26 49  1  0  0  0  0
 27 50  1  0  0  0  0
 27 51  1  0  0  0  0
 27 52  1  0  0  0  0
 28 53  1  0  0  0  0
 28 54  1  0  0  0  0
 28 55  1  0  0  0  0
M  END
>  <$CLUSTER>
250

>  <INDEX>
156626

$$$$
Asinex ASN 06459988
  MOE2020           3D

 55 57  0  0  0  0  0  0  0  0999 V2000
   -7.5630   -3.2140    3.3470 C   0  0  0  0  0  0  0  0  0  0  0  0
   -1.1430    0.2770    0.8410 N   0  0  0  0  0  0  0  0  0  0  0  0
   -0.0200    0.0880   -0.0080 C   0  0  0  0  0  0  0  0  0  0  0  0
   -2.4250    0.6760    0.4840 C   0  0  0  0  0  0  0  0  0  0  0  0
   -6.4910   -2.3370    3.4730 N   0  0  0  0  0  0  0  0  0  0  0  0
   -3.5760   -0.5910    2.3260 N   0  3  0  0  0  0  0  0  0  0  0  0
    1.2050   -0.3260    0.5690 C   0  0  0  0  0  0  0  0  0  0  0  0
   -8.8860   -2.4980    3.3230 C   0  0  0  0  0  0  0  0  0  0  0  0
   -7.4790   -4.4340    3.2440 O   0  0  0  0  0  0  0  0  0  0  0  0
   -3.3240    0.7530    1.6930 C   0  0  0  0  0  0  0  0  0  0  0  0
   -9.9500   -3.1910    2.6810 C   0  0  0  0  0  0  0  0  0  0  0  0
   -2.8530    0.9480   -0.6320 O   0  0  0  0  0  0  0  0  0  0  0  0
    2.3280   -0.5180   -0.2540 C   0  0  0  0  0  0  0  0  0  0  0  0
   -5.1080   -2.7950    3.5180 C   0  0  0  0  0  0  0  0  0  0  0  0
   -4.2750   -1.8350    4.3680 C   0  0  0  0  0  0  0  0  0  0  0  0
   -4.5440   -2.8740    2.0980 C   0  0  0  0  0  0  0  0  0  0  0  0
   -4.1420   -0.4710    3.7070 C   0  0  0  0  0  0  0  0  0  0  0  0
   -4.4140   -1.5100    1.4720 C   0  0  0  0  0  0  0  0  0  0  0  0
  -11.2190   -2.6110    2.6400 C   0  0  0  0  0  0  0  0  0  0  0  0
  -12.2710   -3.1750    2.0440 F   0  0  0  0  0  0  0  0  0  0  0  0
   -0.0760    0.2960   -1.3940 C   0  0  0  0  0  0  0  0  0  0  0  0
   -9.1240   -1.2930    3.9320 C   0  0  0  0  0  0  0  0  0  0  0  0
    1.0520    0.1000   -2.1960 C   0  0  0  0  0  0  0  0  0  0  0  0
    1.3540   -0.5720    2.0480 C   0  0  0  0  0  0  0  0  0  0  0  0
  -10.3970   -0.7180    3.8890 C   0  0  0  0  0  0  0  0  0  0  0  0
    2.2530   -0.3070   -1.6270 C   0  0  0  0  0  0  0  0  0  0  0  0
    3.6240   -0.9560    0.3610 C   0  0  0  0  0  0  0  0  0  0  0  0
  -11.4420   -1.3740    3.2420 C   0  0  0  0  0  0  0  0  0  0  0  0
   -0.9910    0.1000    1.8240 H   0  0  0  0  0  0  0  0  0  0  0  0
   -6.6780   -1.3460    3.5360 H   0  0  0  0  0  0  0  0  0  0  0  0
   -2.6660   -1.0220    2.4020 H   0  0  0  0  0  0  0  0  0  0  0  0
   -4.2800    1.1780    1.3880 H   0  0  0  0  0  0  0  0  0  0  0  0
   -2.8570    1.4030    2.4330 H   0  0  0  0  0  0  0  0  0  0  0  0
   -9.7770   -4.1570    2.2300 H   0  0  0  0  0  0  0  0  0  0  0  0
   -5.0690   -3.7870    3.9670 H   0  0  0  0  0  0  0  0  0  0  0  0
   -3.2800   -2.2590    4.5080 H   0  0  0  0  0  0  0  0  0  0  0  0
   -4.7570   -1.7120    5.3380 H   0  0  0  0  0  0  0  0  0  0  0  0
   -5.2110   -3.4810    1.4860 H   0  0  0  0  0  0  0  0  0  0  0  0
   -3.5600   -3.3410    2.1350 H   0  0  0  0  0  0  0  0  0  0  0  0
   -5.1260   -0.0070    3.6490 H   0  0  0  0  0  0  0  0  0  0  0  0
   -3.4810    0.1530    4.3090 H   0  0  0  0  0  0  0  0  0  0  0  0
   -3.9440   -1.6120    0.4940 H   0  0  0  0  0  0  0  0  0  0  0  0
   -5.4080   -1.0770    1.3550 H   0  0  0  0  0  0  0  0  0  0  0  0
   -1.0040    0.6120   -1.8480 H   0  0  0  0  0  0  0  0  0  0  0  0
   -8.3230   -0.7850    4.4480 H   0  0  0  0  0  0  0  0  0  0  0  0
    0.9900    0.2650   -3.2610 H   0  0  0  0  0  0  0  0  0  0  0  0
    0.4030   -0.3820    2.5460 H   0  0  0  0  0  0  0  0  0  0  0  0
    2.1150    0.0950    2.4520 H   0  0  0  0  0  0  0  0  0  0  0  0
    1.6510   -1.6070    2.2160 H   0  0  0  0  0  0  0  0  0  0  0  0
  -10.5710    0.2390    4.3590 H   0  0  0  0  0  0  0  0  0  0  0  0
    3.1240   -0.4590   -2.2480 H   0  0  0  0  0  0  0  0  0  0  0  0
    3.4950   -1.0700    1.4370 H   0  0  0  0  0  0  0  0  0  0  0  0
    4.3910   -0.2070    0.1640 H   0  0  0  0  0  0  0  0  0  0  0  0
    3.9280   -1.9090   -0.0720 H   0  0  0  0  0  0  0  0  0  0  0  0
  -12.4230   -0.9250    3.2070 H   0  0  0  0  0  0  0  0  0  0  0  0
  1  5  1  0  0  0  0
  1  8  1  0  0  0  0
  1  9  2  0  0  0  0
  2  3  1  0  0  0  0
  2  4  1  0  0  0  0
  2 29  1  0  0  0  0
  3  7  2  0  0  0  0
  3 21  1  0  0  0  0
  4 10  1  0  0  0  0
  4 12  2  0  0  0  0
  5 14  1  0  0  0  0
  5 30  1  0  0  0  0
  6 10  1  0  0  0  0
  6 17  1  0  0  0  0
  6 18  1  0  0  0  0
  6 31  1  0  0  0  0
  7 13  1  0  0  0  0
  7 24  1  0  0  0  0
  8 11  2  0  0  0  0
  8 22  1  0  0  0  0
 10 32  1  0  0  0  0
 10 33  1  0  0  0  0
 11 19  1  0  0  0  0
 11 34  1  0  0  0  0
 13 26  2  0  0  0  0
 13 27  1  0  0  0  0
 14 15  1  0  0  0  0
 14 16  1  0  0  0  0
 14 35  1  0  0  0  0
 15 17  1  0  0  0  0
 15 36  1  0  0  0  0
 15 37  1  0  0  0  0
 16 18  1  0  0  0  0
 16 38  1  0  0  0  0
 16 39  1  0  0  0  0
 17 40  1  0  0  0  0
 17 41  1  0  0  0  0
 18 42  1  0  0  0  0
 18 43  1  0  0  0  0
 19 20  1  0  0  0  0
 19 28  2  0  0  0  0
 21 23  2  0  0  0  0
 21 44  1  0  0  0  0
 22 25  2  0  0  0  0
 22 45  1  0  0  0  0
 23 26  1  0  0  0  0
 23 46  1  0  0  0  0
 24 47  1  0  0  0  0
 24 48  1  0  0  0  0
 24 49  1  0  0  0  0
 25 28  1  0  0  0  0
 25 50  1  0  0  0  0
 26 51  1  0  0  0  0
 27 52  1  0  0  0  0
 27 53  1  0  0  0  0
 27 54  1  0  0  0  0
 28 55  1  0  0  0  0
M  CHG  1   6   1
M  END
>  <$CLUSTER>
251

>  <INDEX>
159271

$$$$
Asinex ASN 06563172
  MOE2020           3D

 60 63  0  0  1  0  0  0  0  0999 V2000
   -0.0740   -0.2740   -0.1730 N   0  0  0  0  0  0  0  0  0  0  0  0
    0.3380   -0.6600    1.1100 C   0  0  0  0  0  0  0  0  0  0  0  0
    1.5640    0.0150    1.6730 C   0  0  0  0  0  0  0  0  0  0  0  0
   -0.3400    1.7850   -1.6060 C   0  0  0  0  0  0  0  0  0  0  0  0
    3.2440    1.4750    1.4890 N   0  0  0  0  0  0  0  0  0  0  0  0
    2.1920    0.9780    0.8610 N   0  0  0  0  0  0  0  0  0  0  0  0
    0.6130    0.7580   -0.9930 C   0  0  3  0  0  0  0  0  0  0  0  0
    3.4700    0.8080    3.0060 S   0  0  0  0  0  0  0  0  0  0  0  0
   -0.9790    2.5670   -0.6710 N   0  0  0  0  0  0  0  0  0  0  0  0
    2.1040   -0.2190    2.8660 C   0  0  0  0  0  0  0  0  0  0  0  0
   -1.2380   -0.9670   -0.7460 C   0  0  0  0  0  0  0  0  0  0  0  0
   -0.5860    1.8960   -2.7960 O   0  0  0  0  0  0  0  0  0  0  0  0
    1.4810    0.1000   -2.0680 C   0  0  0  0  0  0  0  0  0  0  0  0
   -0.2420   -1.5120    1.7900 O   0  0  0  0  0  0  0  0  0  0  0  0
    0.9390   -0.8580   -2.9480 C   0  0  0  0  0  0  0  0  0  0  0  0
    2.8260    0.4740   -2.2400 C   0  0  0  0  0  0  0  0  0  0  0  0
   -1.9420    3.6080   -0.9480 C   0  0  0  0  0  0  0  0  0  0  0  0
   -2.5610   -0.4170   -0.2330 C   0  0  0  0  0  0  0  0  0  0  0  0
    3.6050   -0.0970   -3.2510 C   0  0  0  0  0  0  0  0  0  0  0  0
    1.7190   -1.4280   -3.9580 C   0  0  0  0  0  0  0  0  0  0  0  0
    3.0520   -1.0460   -4.1090 C   0  0  0  0  0  0  0  0  0  0  0  0
    3.8830   -1.6550   -5.1900 C   0  0  0  0  0  0  0  0  0  0  0  0
   -3.2850    0.5050   -0.9930 C   0  0  0  0  0  0  0  0  0  0  0  0
   -3.0380   -0.8020    1.0260 C   0  0  0  0  0  0  0  0  0  0  0  0
   -1.8670    4.7290    0.0830 C   0  0  0  0  0  0  0  0  0  0  0  0
   -3.3470    3.0170   -1.0130 C   0  0  0  0  0  0  0  0  0  0  0  0
   -4.2500   -0.2960    1.5020 C   0  0  0  0  0  0  0  0  0  0  0  0
   -4.4970    1.0110   -0.5150 C   0  0  0  0  0  0  0  0  0  0  0  0
   -4.4130    4.0910   -1.2510 C   0  0  0  0  0  0  0  0  0  0  0  0
   -2.9180    5.8020   -0.1500 C   0  0  0  0  0  0  0  0  0  0  0  0
   -4.9800    0.6080    0.7310 C   0  0  0  0  0  0  0  0  0  0  0  0
   -4.3210    5.2080   -0.2160 C   0  0  0  0  0  0  0  0  0  0  0  0
    1.2530    1.3180   -0.3110 H   0  0  0  0  0  0  0  0  0  0  0  0
   -0.7540    2.3970    0.2990 H   0  0  0  0  0  0  0  0  0  0  0  0
    1.7500   -0.9220    3.6050 H   0  0  0  0  0  0  0  0  0  0  0  0
   -1.1760   -2.0240   -0.4880 H   0  0  0  0  0  0  0  0  0  0  0  0
   -1.2110   -0.8560   -1.8300 H   0  0  0  0  0  0  0  0  0  0  0  0
   -0.0940   -1.1560   -2.8400 H   0  0  0  0  0  0  0  0  0  0  0  0
    3.2630    1.2120   -1.5830 H   0  0  0  0  0  0  0  0  0  0  0  0
   -1.7010    4.0460   -1.9170 H   0  0  0  0  0  0  0  0  0  0  0  0
    4.6370    0.1980   -3.3670 H   0  0  0  0  0  0  0  0  0  0  0  0
    1.2900   -2.1640   -4.6210 H   0  0  0  0  0  0  0  0  0  0  0  0
    4.8890   -1.2380   -5.1540 H   0  0  0  0  0  0  0  0  0  0  0  0
    3.4340   -1.4380   -6.1590 H   0  0  0  0  0  0  0  0  0  0  0  0
    3.9320   -2.7340   -5.0460 H   0  0  0  0  0  0  0  0  0  0  0  0
   -2.9070    0.8270   -1.9520 H   0  0  0  0  0  0  0  0  0  0  0  0
   -2.4680   -1.4920    1.6300 H   0  0  0  0  0  0  0  0  0  0  0  0
   -0.8800    5.1880    0.0290 H   0  0  0  0  0  0  0  0  0  0  0  0
   -2.0160    4.3030    1.0750 H   0  0  0  0  0  0  0  0  0  0  0  0
   -3.5600    2.5130   -0.0700 H   0  0  0  0  0  0  0  0  0  0  0  0
   -3.3870    2.2950   -1.8290 H   0  0  0  0  0  0  0  0  0  0  0  0
   -4.6220   -0.6050    2.4680 H   0  0  0  0  0  0  0  0  0  0  0  0
   -5.0600    1.7140   -1.1100 H   0  0  0  0  0  0  0  0  0  0  0  0
   -5.3990    3.6310   -1.1890 H   0  0  0  0  0  0  0  0  0  0  0  0
   -4.2720    4.5160   -2.2450 H   0  0  0  0  0  0  0  0  0  0  0  0
   -2.7040    6.3090   -1.0910 H   0  0  0  0  0  0  0  0  0  0  0  0
   -2.8760    6.5210    0.6680 H   0  0  0  0  0  0  0  0  0  0  0  0
   -5.9190    0.9960    1.0980 H   0  0  0  0  0  0  0  0  0  0  0  0
   -4.5800    4.8050    0.7630 H   0  0  0  0  0  0  0  0  0  0  0  0
   -5.0260    5.9960   -0.4830 H   0  0  0  0  0  0  0  0  0  0  0  0
  1  2  1  0  0  0  0
  1  7  1  0  0  0  0
  1 11  1  0  0  0  0
  2  3  1  0  0  0  0
  2 14  2  0  0  0  0
  3  6  1  0  0  0  0
  3 10  2  0  0  0  0
  4  7  1  0  0  0  0
  4  9  1  0  0  0  0
  4 12  2  0  0  0  0
  5  6  2  0  0  0  0
  5  8  1  0  0  0  0
  7 13  1  0  0  0  0
  7 33  1  0  0  0  0
  8 10  1  0  0  0  0
  9 17  1  0  0  0  0
  9 34  1  0  0  0  0
 10 35  1  0  0  0  0
 11 18  1  0  0  0  0
 11 36  1  0  0  0  0
 11 37  1  0  0  0  0
 13 15  1  0  0  0  0
 13 16  2  0  0  0  0
 15 20  2  0  0  0  0
 15 38  1  0  0  0  0
 16 19  1  0  0  0  0
 16 39  1  0  0  0  0
 17 25  1  0  0  0  0
 17 26  1  0  0  0  0
 17 40  1  0  0  0  0
 18 23  1  0  0  0  0
 18 24  2  0  0  0  0
 19 21  2  0  0  0  0
 19 41  1  0  0  0  0
 20 21  1  0  0  0  0
 20 42  1  0  0  0  0
 21 22  1  0  0  0  0
 22 43  1  0  0  0  0
 22 44  1  0  0  0  0
 22 45  1  0  0  0  0
 23 28  2  0  0  0  0
 23 46  1  0  0  0  0
 24 27  1  0  0  0  0
 24 47  1  0  0  0  0
 25 30  1  0  0  0  0
 25 48  1  0  0  0  0
 25 49  1  0  0  0  0
 26 29  1  0  0  0  0
 26 50  1  0  0  0  0
 26 51  1  0  0  0  0
 27 31  2  0  0  0  0
 27 52  1  0  0  0  0
 28 31  1  0  0  0  0
 28 53  1  0  0  0  0
 29 32  1  0  0  0  0
 29 54  1  0  0  0  0
 29 55  1  0  0  0  0
 30 32  1  0  0  0  0
 30 56  1  0  0  0  0
 30 57  1  0  0  0  0
 31 58  1  0  0  0  0
 32 59  1  0  0  0  0
 32 60  1  0  0  0  0
M  END
>  <$CLUSTER>
252

>  <INDEX>
160846

$$$$
Asinex ASN 06484006
  MOE2020           3D

 55 58  0  0  0  0  0  0  0  0999 V2000
    0.1110    0.4650   -0.9390 N   0  0  0  0  0  0  0  0  0  0  0  0
    0.3300   -0.9030   -0.7610 C   0  0  0  0  0  0  0  0  0  0  0  0
   -0.5170    1.2320    0.0860 C   0  0  0  0  0  0  0  0  0  0  0  0
    0.0660   -1.4190    0.6610 C   0  0  0  0  0  0  0  0  0  0  0  0
   -1.0050   -0.7860    1.3460 O   0  0  0  0  0  0  0  0  0  0  0  0
   -1.0650    0.5690    1.1890 C   0  0  0  0  0  0  0  0  0  0  0  0
   -1.4180    4.8110    0.8900 C   0  0  0  0  0  0  0  0  0  0  0  0
   -0.6490    2.6270    0.0210 C   0  0  0  0  0  0  0  0  0  0  0  0
   -1.3190    3.3320    1.0270 C   0  0  0  0  0  0  0  0  0  0  0  0
    0.5290    1.0910   -2.1970 C   0  0  0  0  0  0  0  0  0  0  0  0
    1.9500    1.6300   -2.1190 C   0  0  0  0  0  0  0  0  0  0  0  0
   -2.4840    5.4200    1.5160 N   0  0  0  0  0  0  0  0  0  0  0  0
    2.0410    2.9670   -1.8770 N   0  0  0  0  0  0  0  0  0  0  0  0
    0.7850   -1.6460   -1.6340 O   0  0  0  0  0  0  0  0  0  0  0  0
   -0.5820    5.4290    0.2370 O   0  0  0  0  0  0  0  0  0  0  0  0
   -1.7510    1.2700    2.1850 C   0  0  0  0  0  0  0  0  0  0  0  0
    2.9530    0.9220   -2.2320 O   0  0  0  0  0  0  0  0  0  0  0  0
   -1.8740    2.6540    2.1060 C   0  0  0  0  0  0  0  0  0  0  0  0
    3.1260    3.8350   -1.7340 C   0  0  0  0  0  0  0  0  0  0  0  0
   -2.8850    6.7380    1.6010 C   0  0  0  0  0  0  0  0  0  0  0  0
    5.2560    5.6430   -1.4290 C   0  0  0  0  0  0  0  0  0  0  0  0
    6.2090    6.5610   -1.2740 F   0  0  0  0  0  0  0  0  0  0  0  0
    1.3540   -1.2740    1.4880 C   0  0  0  0  0  0  0  0  0  0  0  0
   -0.3100   -2.9060    0.5930 C   0  0  0  0  0  0  0  0  0  0  0  0
    4.4490    3.3900   -1.8150 C   0  0  0  0  0  0  0  0  0  0  0  0
    2.8840    5.1970   -1.4980 C   0  0  0  0  0  0  0  0  0  0  0  0
    5.5070    4.2930   -1.6620 C   0  0  0  0  0  0  0  0  0  0  0  0
    3.9420    6.0950   -1.3460 C   0  0  0  0  0  0  0  0  0  0  0  0
   -2.1890    7.7840    0.9860 C   0  0  0  0  0  0  0  0  0  0  0  0
   -4.0420    7.0360    2.3370 C   0  0  0  0  0  0  0  0  0  0  0  0
   -2.6450    9.1010    1.1070 C   0  0  0  0  0  0  0  0  0  0  0  0
   -4.4930    8.3520    2.4550 C   0  0  0  0  0  0  0  0  0  0  0  0
   -3.7950    9.3860    1.8400 C   0  0  0  0  0  0  0  0  0  0  0  0
   -0.2280    3.1640   -0.8160 H   0  0  0  0  0  0  0  0  0  0  0  0
   -0.1480    1.9150   -2.4230 H   0  0  0  0  0  0  0  0  0  0  0  0
    0.4770    0.3490   -2.9940 H   0  0  0  0  0  0  0  0  0  0  0  0
   -3.0890    4.7780    2.0080 H   0  0  0  0  0  0  0  0  0  0  0  0
    1.1440    3.4220   -1.7820 H   0  0  0  0  0  0  0  0  0  0  0  0
   -2.1860    0.7370    3.0170 H   0  0  0  0  0  0  0  0  0  0  0  0
   -2.3970    3.1980    2.8780 H   0  0  0  0  0  0  0  0  0  0  0  0
    1.6330   -0.2220    1.5450 H   0  0  0  0  0  0  0  0  0  0  0  0
    2.1570   -1.8380    1.0120 H   0  0  0  0  0  0  0  0  0  0  0  0
    1.1860   -1.6600    2.4930 H   0  0  0  0  0  0  0  0  0  0  0  0
   -1.2230   -3.0240    0.0090 H   0  0  0  0  0  0  0  0  0  0  0  0
   -0.4730   -3.2860    1.6020 H   0  0  0  0  0  0  0  0  0  0  0  0
    0.4980   -3.4640    0.1200 H   0  0  0  0  0  0  0  0  0  0  0  0
    4.6550    2.3450   -1.9960 H   0  0  0  0  0  0  0  0  0  0  0  0
    1.8670    5.5550   -1.4330 H   0  0  0  0  0  0  0  0  0  0  0  0
    6.5260    3.9400   -1.7250 H   0  0  0  0  0  0  0  0  0  0  0  0
    3.7410    7.1400   -1.1640 H   0  0  0  0  0  0  0  0  0  0  0  0
   -1.2960    7.5740    0.4160 H   0  0  0  0  0  0  0  0  0  0  0  0
   -4.5900    6.2390    2.8170 H   0  0  0  0  0  0  0  0  0  0  0  0
   -2.1020    9.9030    0.6290 H   0  0  0  0  0  0  0  0  0  0  0  0
   -5.3850    8.5670    3.0250 H   0  0  0  0  0  0  0  0  0  0  0  0
   -4.1430   10.4050    1.9300 H   0  0  0  0  0  0  0  0  0  0  0  0
  1  2  1  0  0  0  0
  1  3  1  0  0  0  0
  1 10  1  0  0  0  0
  2  4  1  0  0  0  0
  2 14  2  0  0  0  0
  3  6  1  0  0  0  0
  3  8  2  0  0  0  0
  4  5  1  0  0  0  0
  4 23  1  0  0  0  0
  4 24  1  0  0  0  0
  5  6  1  0  0  0  0
  6 16  2  0  0  0  0
  7  9  1  0  0  0  0
  7 12  1  0  0  0  0
  7 15  2  0  0  0  0
  8  9  1  0  0  0  0
  8 34  1  0  0  0  0
  9 18  2  0  0  0  0
 10 11  1  0  0  0  0
 10 35  1  0  0  0  0
 10 36  1  0  0  0  0
 11 13  1  0  0  0  0
 11 17  2  0  0  0  0
 12 20  1  0  0  0  0
 12 37  1  0  0  0  0
 13 19  1  0  0  0  0
 13 38  1  0  0  0  0
 16 18  1  0  0  0  0
 16 39  1  0  0  0  0
 18 40  1  0  0  0  0
 19 25  2  0  0  0  0
 19 26  1  0  0  0  0
 20 29  2  0  0  0  0
 20 30  1  0  0  0  0
 21 22  1  0  0  0  0
 21 27  2  0  0  0  0
 21 28  1  0  0  0  0
 23 41  1  0  0  0  0
 23 42  1  0  0  0  0
 23 43  1  0  0  0  0
 24 44  1  0  0  0  0
 24 45  1  0  0  0  0
 24 46  1  0  0  0  0
 25 27  1  0  0  0  0
 25 47  1  0  0  0  0
 26 28  2  0  0  0  0
 26 48  1  0  0  0  0
 27 49  1  0  0  0  0
 28 50  1  0  0  0  0
 29 31  1  0  0  0  0
 29 51  1  0  0  0  0
 30 32  2  0  0  0  0
 30 52  1  0  0  0  0
 31 33  2  0  0  0  0
 31 53  1  0  0  0  0
 32 33  1  0  0  0  0
 32 54  1  0  0  0  0
 33 55  1  0  0  0  0
M  END
>  <$CLUSTER>
253

>  <INDEX>
160170

$$$$
Chembridge 5348735
  MOE2020           3D

 47 48  0  0  1  0  0  0  0  0999 V2000
    0.3620    0.6510   -0.0820 N   0  3  0  0  0  0  0  0  0  0  0  0
   -0.2920   -0.6470    0.0810 C   0  0  0  0  0  0  0  0  0  0  0  0
    1.6040    0.6970   -0.1070 O   0  5  0  0  0  0  0  0  0  0  0  0
    6.1600   -7.5970   -1.6200 C   0  0  0  0  0  0  0  0  0  0  0  0
   -0.3660    1.6520   -0.1880 O   0  0  0  0  0  0  0  0  0  0  0  0
    0.4780   -1.7400    0.1970 C   0  0  0  0  0  0  0  0  0  0  0  0
    6.4880   -8.2150   -0.4150 C   0  0  0  0  0  0  0  0  0  0  0  0
    5.1480   -6.6370   -1.6590 C   0  0  0  0  0  0  0  0  0  0  0  0
   -0.1920   -3.0020    0.3600 C   0  0  0  0  0  0  0  0  0  0  0  0
    5.8050   -7.8760    0.7500 C   0  0  0  0  0  0  0  0  0  0  0  0
    0.8840   -4.8560   -0.8590 N   0  3  3  0  0  0  0  0  0  0  0  0
    0.6250   -4.2680    0.4650 C   0  0  0  0  0  0  0  0  0  0  0  0
    4.4520   -6.2760   -0.4920 C   0  0  0  0  0  0  0  0  0  0  0  0
    1.9940   -5.8950   -0.8160 C   0  0  0  0  0  0  0  0  0  0  0  0
    4.7920   -6.9170    0.7120 C   0  0  0  0  0  0  0  0  0  0  0  0
    6.8860   -7.9930   -2.7250 O   0  0  0  0  0  0  0  0  0  0  0  0
    3.3600   -5.2620   -0.5360 C   0  0  0  0  0  0  0  0  0  0  0  0
    7.4980   -9.1520   -0.4730 O   0  0  0  0  0  0  0  0  0  0  0  0
   -1.7850   -0.6130    0.1000 C   0  0  0  0  0  0  0  0  0  0  0  0
   -2.3490   -1.8850    0.2530 C   0  0  0  0  0  0  0  0  0  0  0  0
   -1.5960   -3.0520    0.3780 C   0  0  0  0  0  0  0  0  0  0  0  0
   -0.3340   -5.4430   -1.5430 C   0  0  0  0  0  0  0  0  0  0  0  0
    6.5790   -7.3810   -3.9720 C   0  0  0  0  0  0  0  0  0  0  0  0
    7.8580   -9.8040    0.7380 C   0  0  0  0  0  0  0  0  0  0  0  0
    1.5560   -1.6750    0.1690 H   0  0  0  0  0  0  0  0  0  0  0  0
    4.8960   -6.1650   -2.5970 H   0  0  0  0  0  0  0  0  0  0  0  0
    6.0590   -8.3560    1.6840 H   0  0  0  0  0  0  0  0  0  0  0  0
    1.1780   -4.0680   -1.4190 H   0  0  0  0  0  0  0  0  0  0  0  0
    0.0810   -4.9910    1.0730 H   0  0  0  0  0  0  0  0  0  0  0  0
    1.5770   -4.0360    0.9420 H   0  0  0  0  0  0  0  0  0  0  0  0
    2.0340   -6.4080   -1.7770 H   0  0  0  0  0  0  0  0  0  0  0  0
    1.7720   -6.6150   -0.0290 H   0  0  0  0  0  0  0  0  0  0  0  0
    4.2630   -6.6640    1.6190 H   0  0  0  0  0  0  0  0  0  0  0  0
    3.5810   -4.5420   -1.3240 H   0  0  0  0  0  0  0  0  0  0  0  0
    3.3190   -4.7490    0.4250 H   0  0  0  0  0  0  0  0  0  0  0  0
   -2.3650    0.2930    0.0060 H   0  0  0  0  0  0  0  0  0  0  0  0
   -3.4260   -1.9670    0.2750 H   0  0  0  0  0  0  0  0  0  0  0  0
   -2.0960   -4.0030    0.4900 H   0  0  0  0  0  0  0  0  0  0  0  0
   -0.6910   -6.3020   -0.9750 H   0  0  0  0  0  0  0  0  0  0  0  0
   -0.0670   -5.7600   -2.5510 H   0  0  0  0  0  0  0  0  0  0  0  0
   -1.1200   -4.6890   -1.5960 H   0  0  0  0  0  0  0  0  0  0  0  0
    7.2280   -7.7900   -4.7470 H   0  0  0  0  0  0  0  0  0  0  0  0
    6.7360   -6.3050   -3.8970 H   0  0  0  0  0  0  0  0  0  0  0  0
    5.5380   -7.5790   -4.2280 H   0  0  0  0  0  0  0  0  0  0  0  0
    8.6630  -10.5130    0.5440 H   0  0  0  0  0  0  0  0  0  0  0  0
    6.9940  -10.3360    1.1350 H   0  0  0  0  0  0  0  0  0  0  0  0
    8.1930   -9.0630    1.4640 H   0  0  0  0  0  0  0  0  0  0  0  0
  1  2  1  0  0  0  0
  1  3  1  0  0  0  0
  1  5  2  0  0  0  0
  2  6  2  0  0  0  0
  2 19  1  0  0  0  0
  4  7  2  0  0  0  0
  4  8  1  0  0  0  0
  4 16  1  0  0  0  0
  6  9  1  0  0  0  0
  6 25  1  0  0  0  0
  7 10  1  0  0  0  0
  7 18  1  0  0  0  0
  8 13  2  0  0  0  0
  8 26  1  0  0  0  0
  9 12  1  0  0  0  0
  9 21  2  0  0  0  0
 10 15  2  0  0  0  0
 10 27  1  0  0  0  0
 11 12  1  0  0  0  0
 11 14  1  0  0  0  0
 11 22  1  0  0  0  0
 11 28  1  0  0  0  0
 12 29  1  0  0  0  0
 12 30  1  0  0  0  0
 13 15  1  0  0  0  0
 13 17  1  0  0  0  0
 14 17  1  0  0  0  0
 14 31  1  0  0  0  0
 14 32  1  0  0  0  0
 15 33  1  0  0  0  0
 16 23  1  0  0  0  0
 17 34  1  0  0  0  0
 17 35  1  0  0  0  0
 18 24  1  0  0  0  0
 19 20  2  0  0  0  0
 19 36  1  0  0  0  0
 20 21  1  0  0  0  0
 20 37  1  0  0  0  0
 21 38  1  0  0  0  0
 22 39  1  0  0  0  0
 22 40  1  0  0  0  0
 22 41  1  0  0  0  0
 23 42  1  0  0  0  0
 23 43  1  0  0  0  0
 23 44  1  0  0  0  0
 24 45  1  0  0  0  0
 24 46  1  0  0  0  0
 24 47  1  0  0  0  0
M  CHG  1   1   1
M  CHG  1   3  -1
M  CHG  1  11   1
M  END
>  <$CLUSTER>
254

>  <INDEX>
42660

$$$$
Asinex ASN 04371767
  MOE2020           3D

 50 53  0  0  0  0  0  0  0  0999 V2000
   -0.4190   -0.6120    0.4920 N   0  0  0  0  0  0  0  0  0  0  0  0
    0.3640   -1.4230   -0.3320 C   0  0  0  0  0  0  0  0  0  0  0  0
    1.0710   -0.6830   -1.1560 N   0  0  0  0  0  0  0  0  0  0  0  0
   -0.1030    0.6720    0.0750 C   0  0  0  0  0  0  0  0  0  0  0  0
    0.7790    0.6250   -0.9010 N   0  0  0  0  0  0  0  0  0  0  0  0
   -1.2890   -1.1570    1.4840 C   0  0  0  0  0  0  0  0  0  0  0  0
    0.3110   -2.8300   -0.1970 C   0  0  0  0  0  0  0  0  0  0  0  0
   -1.3170   -2.5660    1.5910 C   0  0  0  0  0  0  0  0  0  0  0  0
   -0.4850   -3.3960    0.7150 C   0  0  0  0  0  0  0  0  0  0  0  0
   -0.7360    2.1570    0.7040 S   0  0  0  0  0  0  0  0  0  0  0  0
   -2.0950   -0.3950    2.3320 C   0  0  0  0  0  0  0  0  0  0  0  0
    4.5420    6.8140    5.0000 C   0  0  0  0  0  0  0  0  0  0  0  0
    1.6010    3.4250    0.0300 C   0  0  0  0  0  0  0  0  0  0  0  0
   -2.1440   -3.1830    2.5390 C   0  0  0  0  0  0  0  0  0  0  0  0
    3.2700    6.6100    4.4800 N   0  0  0  0  0  0  0  0  0  0  0  0
    2.0070    4.2680    1.2140 C   0  0  0  0  0  0  0  0  0  0  0  0
    0.1180    3.3860   -0.3070 C   0  0  0  0  0  0  0  0  0  0  0  0
    5.6030    6.3400    4.6080 O   0  0  0  0  0  0  0  0  0  0  0  0
    2.4360    2.7820   -0.6120 O   0  0  0  0  0  0  0  0  0  0  0  0
    3.3810    4.2980    1.5300 C   0  0  0  0  0  0  0  0  0  0  0  0
    1.1060    4.9920    1.9580 C   0  0  0  0  0  0  0  0  0  0  0  0
    2.9040    5.7990    3.3630 C   0  0  0  0  0  0  0  0  0  0  0  0
   -2.9420   -2.4120    3.3780 C   0  0  0  0  0  0  0  0  0  0  0  0
   -2.9160   -1.0240    3.2740 C   0  0  0  0  0  0  0  0  0  0  0  0
    1.5500    5.7610    3.0380 C   0  0  0  0  0  0  0  0  0  0  0  0
    3.8180    5.0680    2.6090 C   0  0  0  0  0  0  0  0  0  0  0  0
    1.1720   -3.6650   -1.1060 C   0  0  0  0  0  0  0  0  0  0  0  0
   -3.7050   -3.1350    4.2620 O   0  0  0  0  0  0  0  0  0  0  0  0
    4.5030    7.7430    6.1880 C   0  0  0  0  0  0  0  0  0  0  0  0
   -4.5420   -2.3960    5.1440 C   0  0  0  0  0  0  0  0  0  0  0  0
   -0.5150   -4.4720    0.8070 H   0  0  0  0  0  0  0  0  0  0  0  0
   -2.0850    0.6830    2.2610 H   0  0  0  0  0  0  0  0  0  0  0  0
   -2.1620   -4.2600    2.6190 H   0  0  0  0  0  0  0  0  0  0  0  0
    2.5150    7.0920    4.9470 H   0  0  0  0  0  0  0  0  0  0  0  0
   -0.3170    4.3680   -0.1200 H   0  0  0  0  0  0  0  0  0  0  0  0
   -0.0030    3.1300   -1.3600 H   0  0  0  0  0  0  0  0  0  0  0  0
    4.0880    3.7310    0.9430 H   0  0  0  0  0  0  0  0  0  0  0  0
    0.0560    4.9670    1.7080 H   0  0  0  0  0  0  0  0  0  0  0  0
   -3.5360   -0.4270    3.9270 H   0  0  0  0  0  0  0  0  0  0  0  0
    0.8400    6.3280    3.6230 H   0  0  0  0  0  0  0  0  0  0  0  0
    4.8680    5.0970    2.8600 H   0  0  0  0  0  0  0  0  0  0  0  0
    1.7390   -3.0120   -1.7690 H   0  0  0  0  0  0  0  0  0  0  0  0
    0.5400   -4.3260   -1.6990 H   0  0  0  0  0  0  0  0  0  0  0  0
    1.8600   -4.2620   -0.5070 H   0  0  0  0  0  0  0  0  0  0  0  0
    3.4740    8.0520    6.3740 H   0  0  0  0  0  0  0  0  0  0  0  0
    5.1150    8.6220    5.9830 H   0  0  0  0  0  0  0  0  0  0  0  0
    4.8920    7.2270    7.0660 H   0  0  0  0  0  0  0  0  0  0  0  0
   -5.0890   -3.0850    5.7880 H   0  0  0  0  0  0  0  0  0  0  0  0
   -5.2480   -1.8030    4.5630 H   0  0  0  0  0  0  0  0  0  0  0  0
   -3.9300   -1.7340    5.7570 H   0  0  0  0  0  0  0  0  0  0  0  0
  1  2  1  0  0  0  0
  1  4  1  0  0  0  0
  1  6  1  0  0  0  0
  2  3  2  0  0  0  0
  2  7  1  0  0  0  0
  3  5  1  0  0  0  0
  4  5  2  0  0  0  0
  4 10  1  0  0  0  0
  6  8  2  0  0  0  0
  6 11  1  0  0  0  0
  7  9  2  0  0  0  0
  7 27  1  0  0  0  0
  8  9  1  0  0  0  0
  8 14  1  0  0  0  0
  9 31  1  0  0  0  0
 10 17  1  0  0  0  0
 11 24  2  0  0  0  0
 11 32  1  0  0  0  0
 12 15  1  0  0  0  0
 12 18  2  0  0  0  0
 12 29  1  0  0  0  0
 13 16  1  0  0  0  0
 13 17  1  0  0  0  0
 13 19  2  0  0  0  0
 14 23  2  0  0  0  0
 14 33  1  0  0  0  0
 15 22  1  0  0  0  0
 15 34  1  0  0  0  0
 16 20  1  0  0  0  0
 16 21  2  0  0  0  0
 17 35  1  0  0  0  0
 17 36  1  0  0  0  0
 20 26  2  0  0  0  0
 20 37  1  0  0  0  0
 21 25  1  0  0  0  0
 21 38  1  0  0  0  0
 22 25  2  0  0  0  0
 22 26  1  0  0  0  0
 23 24  1  0  0  0  0
 23 28  1  0  0  0  0
 24 39  1  0  0  0  0
 25 40  1  0  0  0  0
 26 41  1  0  0  0  0
 27 42  1  0  0  0  0
 27 43  1  0  0  0  0
 27 44  1  0  0  0  0
 28 30  1  0  0  0  0
 29 45  1  0  0  0  0
 29 46  1  0  0  0  0
 29 47  1  0  0  0  0
 30 48  1  0  0  0  0
 30 49  1  0  0  0  0
 30 50  1  0  0  0  0
M  END
>  <$CLUSTER>
255

>  <INDEX>
138217

$$$$
Asinex ASN 06593838
  MOE2020           3D

 54 57  0  0  1  0  0  0  0  0999 V2000
    1.9870   -1.3940    0.5380 C   0  0  0  0  0  0  0  0  0  0  0  0
    2.6300   -0.9300    1.5810 N   0  0  0  0  0  0  0  0  0  0  0  0
   -0.3500    1.6960   -2.4050 C   0  0  0  0  0  0  0  0  0  0  0  0
    2.5740   -2.4980    0.0140 N   0  0  0  0  0  0  0  0  0  0  0  0
   -0.2490    1.2330   -1.1200 N   0  0  0  0  0  0  0  0  0  0  0  0
    3.6880   -1.7870    1.7360 C   0  0  0  0  0  0  0  0  0  0  0  0
    3.6740   -2.7680    0.7760 C   0  0  0  0  0  0  0  0  0  0  0  0
    0.7170   -0.7970   -0.0660 C   0  0  3  0  0  0  0  0  0  0  0  0
    0.9680    0.6350   -0.5590 C   0  0  0  0  0  0  0  0  0  0  0  0
    0.8100    1.8050   -3.1030 N   0  0  0  0  0  0  0  0  0  0  0  0
    4.7190   -1.7750    2.7040 C   0  0  0  0  0  0  0  0  0  0  0  0
    4.6430   -3.7860    0.6930 C   0  0  0  0  0  0  0  0  0  0  0  0
    5.6970   -2.7760    2.6460 C   0  0  0  0  0  0  0  0  0  0  0  0
    5.6580   -3.7630    1.6560 C   0  0  0  0  0  0  0  0  0  0  0  0
   -1.7670    2.1430   -3.1850 S   0  0  0  0  0  0  0  0  0  0  0  0
    1.3930    2.1610   -4.3100 C   0  0  0  0  0  0  0  0  0  0  0  0
   -1.3260    1.2730   -0.1260 C   0  0  0  0  0  0  0  0  0  0  0  0
    2.6040    2.8790   -6.7550 C   0  0  0  0  0  0  0  0  0  0  0  0
   -0.4320   -0.8240    0.9480 C   0  0  0  0  0  0  0  0  0  0  0  0
    0.6250    2.6310   -5.3760 C   0  0  0  0  0  0  0  0  0  0  0  0
    2.7850    2.0580   -4.4910 C   0  0  0  0  0  0  0  0  0  0  0  0
    1.2260    2.9880   -6.5900 C   0  0  0  0  0  0  0  0  0  0  0  0
    3.3870    2.4130   -5.7020 C   0  0  0  0  0  0  0  0  0  0  0  0
    3.0680    3.2600   -7.9870 O   0  0  0  0  0  0  0  0  0  0  0  0
   -1.6650   -0.1260    0.3850 C   0  0  0  0  0  0  0  0  0  0  0  0
    6.7990   -2.7860    3.6610 C   0  0  0  0  0  0  0  0  0  0  0  0
    6.7240   -4.8200    1.6230 C   0  0  0  0  0  0  0  0  0  0  0  0
    4.4710    3.1650   -8.2010 C   0  0  0  0  0  0  0  0  0  0  0  0
    2.2570   -3.0220   -0.7890 H   0  0  0  0  0  0  0  0  0  0  0  0
    0.4320   -1.4080   -0.9230 H   0  0  0  0  0  0  0  0  0  0  0  0
    1.3070    1.2440    0.2790 H   0  0  0  0  0  0  0  0  0  0  0  0
    1.7390    0.6140   -1.3290 H   0  0  0  0  0  0  0  0  0  0  0  0
    1.5540    1.5020   -2.4910 H   0  0  0  0  0  0  0  0  0  0  0  0
    4.7510   -1.0130    3.4690 H   0  0  0  0  0  0  0  0  0  0  0  0
    4.6050   -4.5450   -0.0740 H   0  0  0  0  0  0  0  0  0  0  0  0
   -2.2150    1.7090   -0.5830 H   0  0  0  0  0  0  0  0  0  0  0  0
   -1.0100    1.8910    0.7150 H   0  0  0  0  0  0  0  0  0  0  0  0
   -0.1170   -0.3150    1.8590 H   0  0  0  0  0  0  0  0  0  0  0  0
   -0.6810   -1.8600    1.1790 H   0  0  0  0  0  0  0  0  0  0  0  0
   -0.4450    2.7210   -5.2640 H   0  0  0  0  0  0  0  0  0  0  0  0
    3.4000    1.6980   -3.6790 H   0  0  0  0  0  0  0  0  0  0  0  0
    0.6160    3.3500   -7.4040 H   0  0  0  0  0  0  0  0  0  0  0  0
    4.4570    2.3260   -5.8200 H   0  0  0  0  0  0  0  0  0  0  0  0
   -2.0630   -0.7180   -0.4390 H   0  0  0  0  0  0  0  0  0  0  0  0
   -2.4170   -0.0450    1.1700 H   0  0  0  0  0  0  0  0  0  0  0  0
    6.6680   -1.9500    4.3480 H   0  0  0  0  0  0  0  0  0  0  0  0
    7.7600   -2.6940    3.1550 H   0  0  0  0  0  0  0  0  0  0  0  0
    6.7710   -3.7220    4.2190 H   0  0  0  0  0  0  0  0  0  0  0  0
    6.5360   -5.5000    0.7920 H   0  0  0  0  0  0  0  0  0  0  0  0
    6.7110   -5.3780    2.5590 H   0  0  0  0  0  0  0  0  0  0  0  0
    7.6990   -4.3490    1.4940 H   0  0  0  0  0  0  0  0  0  0  0  0
    4.7070    3.4950   -9.2120 H   0  0  0  0  0  0  0  0  0  0  0  0
    4.7890    2.1300   -8.0730 H   0  0  0  0  0  0  0  0  0  0  0  0
    4.9920    3.7970   -7.4810 H   0  0  0  0  0  0  0  0  0  0  0  0
  1  2  2  0  0  0  0
  1  4  1  0  0  0  0
  1  8  1  0  0  0  0
  2  6  1  0  0  0  0
  3  5  1  0  0  0  0
  3 10  1  0  0  0  0
  3 15  2  0  0  0  0
  4  7  1  0  0  0  0
  4 29  1  0  0  0  0
  5  9  1  0  0  0  0
  5 17  1  0  0  0  0
  6  7  2  0  0  0  0
  6 11  1  0  0  0  0
  7 12  1  0  0  0  0
  8  9  1  0  0  0  0
  8 19  1  0  0  0  0
  8 30  1  0  0  0  0
  9 31  1  0  0  0  0
  9 32  1  0  0  0  0
 10 16  1  0  0  0  0
 10 33  1  0  0  0  0
 11 13  2  0  0  0  0
 11 34  1  0  0  0  0
 12 14  2  0  0  0  0
 12 35  1  0  0  0  0
 13 14  1  0  0  0  0
 13 26  1  0  0  0  0
 14 27  1  0  0  0  0
 16 20  2  0  0  0  0
 16 21  1  0  0  0  0
 17 25  1  0  0  0  0
 17 36  1  0  0  0  0
 17 37  1  0  0  0  0
 18 22  2  0  0  0  0
 18 23  1  0  0  0  0
 18 24  1  0  0  0  0
 19 25  1  0  0  0  0
 19 38  1  0  0  0  0
 19 39  1  0  0  0  0
 20 22  1  0  0  0  0
 20 40  1  0  0  0  0
 21 23  2  0  0  0  0
 21 41  1  0  0  0  0
 22 42  1  0  0  0  0
 23 43  1  0  0  0  0
 24 28  1  0  0  0  0
 25 44  1  0  0  0  0
 25 45  1  0  0  0  0
 26 46  1  0  0  0  0
 26 47  1  0  0  0  0
 26 48  1  0  0  0  0
 27 49  1  0  0  0  0
 27 50  1  0  0  0  0
 27 51  1  0  0  0  0
 28 52  1  0  0  0  0
 28 53  1  0  0  0  0
 28 54  1  0  0  0  0
M  END
>  <$CLUSTER>
256

>  <INDEX>
162880

$$$$
Asinex ASN 06601079
  MOE2020           3D

 53 56  0  0  0  0  0  0  0  0999 V2000
    0.5170    1.0120    0.1900 C   0  0  0  0  0  0  0  0  0  0  0  0
   -2.8570   -1.0860    3.6470 N   0  0  0  0  0  0  0  0  0  0  0  0
   -2.2000   -1.7910    2.7600 C   0  0  0  0  0  0  0  0  0  0  0  0
   -2.7750   -3.0130    2.5510 N   0  0  0  0  0  0  0  0  0  0  0  0
   -0.1170   -0.2130   -0.0310 N   0  0  0  0  0  0  0  0  0  0  0  0
    0.0470    1.7710    1.2130 N   0  0  0  0  0  0  0  0  0  0  0  0
   -3.8970   -1.8930    4.0340 C   0  0  0  0  0  0  0  0  0  0  0  0
   -3.8670   -3.0930    3.3670 C   0  0  0  0  0  0  0  0  0  0  0  0
   -0.9690   -1.3550    2.0070 C   0  0  0  0  0  0  0  0  0  0  0  0
    1.8100    1.6340   -0.6860 S   0  0  0  0  0  0  0  0  0  0  0  0
   -1.3190   -0.6320    0.7140 C   0  0  0  0  0  0  0  0  0  0  0  0
    0.3650   -1.1860   -1.0320 C   0  0  0  0  0  0  0  0  0  0  0  0
    0.1690    2.9470    1.9230 C   0  0  0  0  0  0  0  0  0  0  0  0
    1.1460    3.8880    1.5920 C   0  0  0  0  0  0  0  0  0  0  0  0
   -0.3350   -1.0300   -2.3750 C   0  0  0  0  0  0  0  0  0  0  0  0
    1.2670    5.0810    2.3150 C   0  0  0  0  0  0  0  0  0  0  0  0
   -4.9240   -1.6440    4.9720 C   0  0  0  0  0  0  0  0  0  0  0  0
   -0.5680    4.4240    3.7270 C   0  0  0  0  0  0  0  0  0  0  0  0
   -4.8140   -4.1120    3.5630 C   0  0  0  0  0  0  0  0  0  0  0  0
   -0.6870    3.2340    3.0020 C   0  0  0  0  0  0  0  0  0  0  0  0
    0.4130    5.3500    3.3820 C   0  0  0  0  0  0  0  0  0  0  0  0
    2.3230    6.0730    1.9400 C   0  0  0  0  0  0  0  0  0  0  0  0
    0.2770   -0.3200   -3.4110 C   0  0  0  0  0  0  0  0  0  0  0  0
   -1.6130   -1.5690   -2.5660 C   0  0  0  0  0  0  0  0  0  0  0  0
   -5.8820   -2.6430    5.1880 C   0  0  0  0  0  0  0  0  0  0  0  0
   -5.8250   -3.8550    4.4950 C   0  0  0  0  0  0  0  0  0  0  0  0
   -2.2570   -1.4290   -3.7980 C   0  0  0  0  0  0  0  0  0  0  0  0
   -0.3700   -0.1800   -4.6430 C   0  0  0  0  0  0  0  0  0  0  0  0
   -1.6340   -0.7360   -4.8360 C   0  0  0  0  0  0  0  0  0  0  0  0
   -2.4520   -3.7250    1.9120 H   0  0  0  0  0  0  0  0  0  0  0  0
   -0.7150    1.2560    1.6310 H   0  0  0  0  0  0  0  0  0  0  0  0
   -0.3720   -2.2350    1.7680 H   0  0  0  0  0  0  0  0  0  0  0  0
   -0.3890   -0.6840    2.6400 H   0  0  0  0  0  0  0  0  0  0  0  0
   -1.9070   -1.3010    0.0850 H   0  0  0  0  0  0  0  0  0  0  0  0
   -1.9090    0.2520    0.9550 H   0  0  0  0  0  0  0  0  0  0  0  0
    0.1830   -2.1930   -0.6570 H   0  0  0  0  0  0  0  0  0  0  0  0
    1.4350   -1.0390   -1.1760 H   0  0  0  0  0  0  0  0  0  0  0  0
    1.8170    3.6930    0.7680 H   0  0  0  0  0  0  0  0  0  0  0  0
   -4.9690   -0.7080    5.5090 H   0  0  0  0  0  0  0  0  0  0  0  0
   -1.2350    4.6240    4.5520 H   0  0  0  0  0  0  0  0  0  0  0  0
   -4.7640   -5.0450    3.0220 H   0  0  0  0  0  0  0  0  0  0  0  0
   -1.4510    2.5210    3.2760 H   0  0  0  0  0  0  0  0  0  0  0  0
    0.5110    6.2710    3.9380 H   0  0  0  0  0  0  0  0  0  0  0  0
    2.8900    5.6960    1.0890 H   0  0  0  0  0  0  0  0  0  0  0  0
    2.9940    6.2260    2.7850 H   0  0  0  0  0  0  0  0  0  0  0  0
    1.8540    7.0200    1.6720 H   0  0  0  0  0  0  0  0  0  0  0  0
    1.2510    0.1210   -3.2600 H   0  0  0  0  0  0  0  0  0  0  0  0
   -2.1020   -2.0940   -1.7590 H   0  0  0  0  0  0  0  0  0  0  0  0
   -6.6760   -2.4740    5.9000 H   0  0  0  0  0  0  0  0  0  0  0  0
   -6.5760   -4.6080    4.6830 H   0  0  0  0  0  0  0  0  0  0  0  0
   -3.2370   -1.8570   -3.9470 H   0  0  0  0  0  0  0  0  0  0  0  0
    0.1100    0.3600   -5.4460 H   0  0  0  0  0  0  0  0  0  0  0  0
   -2.1310   -0.6300   -5.7890 H   0  0  0  0  0  0  0  0  0  0  0  0
  1  5  1  0  0  0  0
  1  6  1  0  0  0  0
  1 10  2  0  0  0  0
  2  3  2  0  0  0  0
  2  7  1  0  0  0  0
  3  4  1  0  0  0  0
  3  9  1  0  0  0  0
  4  8  1  0  0  0  0
  4 30  1  0  0  0  0
  5 11  1  0  0  0  0
  5 12  1  0  0  0  0
  6 13  1  0  0  0  0
  6 31  1  0  0  0  0
  7  8  2  0  0  0  0
  7 17  1  0  0  0  0
  8 19  1  0  0  0  0
  9 11  1  0  0  0  0
  9 32  1  0  0  0  0
  9 33  1  0  0  0  0
 11 34  1  0  0  0  0
 11 35  1  0  0  0  0
 12 15  1  0  0  0  0
 12 36  1  0  0  0  0
 12 37  1  0  0  0  0
 13 14  2  0  0  0  0
 13 20  1  0  0  0  0
 14 16  1  0  0  0  0
 14 38  1  0  0  0  0
 15 23  1  0  0  0  0
 15 24  2  0  0  0  0
 16 21  2  0  0  0  0
 16 22  1  0  0  0  0
 17 25  2  0  0  0  0
 17 39  1  0  0  0  0
 18 20  2  0  0  0  0
 18 21  1  0  0  0  0
 18 40  1  0  0  0  0
 19 26  2  0  0  0  0
 19 41  1  0  0  0  0
 20 42  1  0  0  0  0
 21 43  1  0  0  0  0
 22 44  1  0  0  0  0
 22 45  1  0  0  0  0
 22 46  1  0  0  0  0
 23 28  2  0  0  0  0
 23 47  1  0  0  0  0
 24 27  1  0  0  0  0
 24 48  1  0  0  0  0
 25 26  1  0  0  0  0
 25 49  1  0  0  0  0
 26 50  1  0  0  0  0
 27 29  2  0  0  0  0
 27 51  1  0  0  0  0
 28 29  1  0  0  0  0
 28 52  1  0  0  0  0
 29 53  1  0  0  0  0
M  END
>  <$CLUSTER>
257

>  <INDEX>
162964

$$$$
Asinex ASN 06748704
  MOE2020           3D

 45 47  0  0  0  0  0  0  0  0999 V2000
    2.6010   -6.0800   -1.6130 N   0  0  0  0  0  0  0  0  0  0  0  0
    3.6590   -5.4590   -2.2350 N   0  0  0  0  0  0  0  0  0  0  0  0
   -0.1240   -0.2130   -0.0320 C   0  0  0  0  0  0  0  0  0  0  0  0
   -1.5850    0.1270   -0.1590 C   0  0  0  0  0  0  0  0  0  0  0  0
    1.8070   -7.0590   -2.1920 C   0  0  0  0  0  0  0  0  0  0  0  0
    2.3060   -5.6060   -0.2380 C   0  0  0  0  0  0  0  0  0  0  0  0
    3.9230   -5.8460   -3.4440 C   0  0  0  0  0  0  0  0  0  0  0  0
    1.4070   -4.3940   -0.2300 C   0  0  0  0  0  0  0  0  0  0  0  0
    2.1730   -7.4460   -3.5640 C   0  0  0  0  0  0  0  0  0  0  0  0
    3.1940   -6.8690   -4.1850 C   0  0  0  0  0  0  0  0  0  0  0  0
    0.8490    0.7800    0.1590 C   0  0  0  0  0  0  0  0  0  0  0  0
    0.3020   -1.5540   -0.1020 C   0  0  0  0  0  0  0  0  0  0  0  0
    2.1390   -3.2270   -0.0500 N   0  0  0  0  0  0  0  0  0  0  0  0
    5.0950   -5.1600   -4.1460 C   0  0  0  0  0  0  0  0  0  0  0  0
    1.6520   -1.8860    0.0140 C   0  0  0  0  0  0  0  0  0  0  0  0
    0.8500   -7.6110   -1.6540 O   0  0  0  0  0  0  0  0  0  0  0  0
    0.1950   -4.5110   -0.3700 O   0  0  0  0  0  0  0  0  0  0  0  0
   -2.3860   -0.9660   -0.3400 F   0  0  0  0  0  0  0  0  0  0  0  0
   -2.0890    0.7570    0.9420 F   0  0  0  0  0  0  0  0  0  0  0  0
   -1.8570    0.9450   -1.2180 F   0  0  0  0  0  0  0  0  0  0  0  0
    2.2020    0.4440    0.2750 C   0  0  0  0  0  0  0  0  0  0  0  0
    5.9740   -4.3610   -3.4050 C   0  0  0  0  0  0  0  0  0  0  0  0
    5.3000   -5.3120   -5.5210 C   0  0  0  0  0  0  0  0  0  0  0  0
    2.6020   -0.8880    0.2020 C   0  0  0  0  0  0  0  0  0  0  0  0
    0.4350    2.4550    0.2600 Cl  0  0  0  0  0  0  0  0  0  0  0  0
    7.2550   -3.8880   -5.3980 C   0  0  0  0  0  0  0  0  0  0  0  0
    6.3800   -4.6770   -6.1440 C   0  0  0  0  0  0  0  0  0  0  0  0
    7.0520   -3.7280   -4.0290 C   0  0  0  0  0  0  0  0  0  0  0  0
    8.3460   -3.2160   -5.8980 O   0  0  0  0  0  0  0  0  0  0  0  0
    8.5980   -3.3420   -7.2930 C   0  0  0  0  0  0  0  0  0  0  0  0
    3.2450   -5.3490    0.2530 H   0  0  0  0  0  0  0  0  0  0  0  0
    1.8160   -6.4090    0.3120 H   0  0  0  0  0  0  0  0  0  0  0  0
    1.6030   -8.2100   -4.0720 H   0  0  0  0  0  0  0  0  0  0  0  0
    3.4720   -7.1440   -5.1920 H   0  0  0  0  0  0  0  0  0  0  0  0
   -0.4280   -2.3370   -0.2480 H   0  0  0  0  0  0  0  0  0  0  0  0
    3.1380   -3.3410    0.0480 H   0  0  0  0  0  0  0  0  0  0  0  0
    2.9390    1.2200    0.4220 H   0  0  0  0  0  0  0  0  0  0  0  0
    5.8180   -4.2330   -2.3440 H   0  0  0  0  0  0  0  0  0  0  0  0
    4.6240   -5.9200   -6.1030 H   0  0  0  0  0  0  0  0  0  0  0  0
    3.6470   -1.1450    0.2910 H   0  0  0  0  0  0  0  0  0  0  0  0
    6.5360   -4.7980   -7.2060 H   0  0  0  0  0  0  0  0  0  0  0  0
    7.7270   -3.1150   -3.4510 H   0  0  0  0  0  0  0  0  0  0  0  0
    9.4840   -2.7650   -7.5560 H   0  0  0  0  0  0  0  0  0  0  0  0
    7.7410   -2.9670   -7.8520 H   0  0  0  0  0  0  0  0  0  0  0  0
    8.7620   -4.3910   -7.5390 H   0  0  0  0  0  0  0  0  0  0  0  0
  1  2  1  0  0  0  0
  1  5  1  0  0  0  0
  1  6  1  0  0  0  0
  2  7  2  0  0  0  0
  3  4  1  0  0  0  0
  3 11  1  0  0  0  0
  3 12  2  0  0  0  0
  4 18  1  0  0  0  0
  4 19  1  0  0  0  0
  4 20  1  0  0  0  0
  5  9  1  0  0  0  0
  5 16  2  0  0  0  0
  6  8  1  0  0  0  0
  6 31  1  0  0  0  0
  6 32  1  0  0  0  0
  7 10  1  0  0  0  0
  7 14  1  0  0  0  0
  8 13  1  0  0  0  0
  8 17  2  0  0  0  0
  9 10  2  0  0  0  0
  9 33  1  0  0  0  0
 10 34  1  0  0  0  0
 11 21  2  0  0  0  0
 11 25  1  0  0  0  0
 12 15  1  0  0  0  0
 12 35  1  0  0  0  0
 13 15  1  0  0  0  0
 13 36  1  0  0  0  0
 14 22  1  0  0  0  0
 14 23  2  0  0  0  0
 15 24  2  0  0  0  0
 21 24  1  0  0  0  0
 21 37  1  0  0  0  0
 22 28  2  0  0  0  0
 22 38  1  0  0  0  0
 23 27  1  0  0  0  0
 23 39  1  0  0  0  0
 24 40  1  0  0  0  0
 26 27  2  0  0  0  0
 26 28  1  0  0  0  0
 26 29  1  0  0  0  0
 27 41  1  0  0  0  0
 28 42  1  0  0  0  0
 29 30  1  0  0  0  0
 30 43  1  0  0  0  0
 30 44  1  0  0  0  0
 30 45  1  0  0  0  0
M  END
>  <$CLUSTER>
258

>  <INDEX>
163433

$$$$
Asinex ASN 06919209
  MOE2020           3D

 56 60  0  0  1  0  0  0  0  0999 V2000
    0.1180   -0.1790    0.3680 C   0  0  0  0  0  0  0  0  0  0  0  0
   -1.0080    0.5880    0.3250 N   0  0  0  0  0  0  0  0  0  0  0  0
    0.0820   -0.8810   -0.8240 C   0  0  0  0  0  0  0  0  0  0  0  0
    1.0570   -0.2510    1.3240 N   0  0  0  0  0  0  0  0  0  0  0  0
   -1.6990    0.3780   -0.8150 N   0  0  0  0  0  0  0  0  0  0  0  0
   -1.0340   -0.5270   -1.5290 N   0  0  0  0  0  0  0  0  0  0  0  0
    2.0170   -1.1370    0.9760 C   0  0  0  0  0  0  0  0  0  0  0  0
    2.1110   -1.8900   -0.1470 N   0  0  0  0  0  0  0  0  0  0  0  0
    1.1260   -1.7640   -1.0700 C   0  0  0  0  0  0  0  0  0  0  0  0
    4.2950   -2.8960    3.5370 N   0  0  0  0  0  0  0  0  0  0  0  0
    4.0480   -3.3040    4.8150 C   0  0  0  0  0  0  0  0  0  0  0  0
    3.1630   -1.3030    2.0180 C   0  0  3  0  0  0  0  0  0  0  0  0
    3.2190   -2.7300    2.5660 C   0  0  0  0  0  0  0  0  0  0  0  0
    5.2420   -3.4390    5.7260 C   0  0  0  0  0  0  0  0  0  0  0  0
   -1.4880    1.5280    1.3110 C   0  0  0  0  0  0  0  0  0  0  0  0
    2.9230   -3.5620    5.2530 O   0  0  0  0  0  0  0  0  0  0  0  0
    5.0310   -3.3220    7.0980 C   0  0  0  0  0  0  0  0  0  0  0  0
    1.1550   -2.4900   -2.1430 O   0  0  0  0  0  0  0  0  0  0  0  0
   -1.0100    2.9430    1.0360 C   0  0  0  0  0  0  0  0  0  0  0  0
    5.5970   -2.5720    2.9460 C   0  0  0  0  0  0  0  0  0  0  0  0
   -0.1130    5.5530    0.5180 C   0  0  0  0  0  0  0  0  0  0  0  0
    6.1110   -3.4420    7.9740 C   0  0  0  0  0  0  0  0  0  0  0  0
    0.3850    6.7730    0.3180 F   0  0  0  0  0  0  0  0  0  0  0  0
    4.5120   -0.8810    1.4360 C   0  0  0  0  0  0  0  0  0  0  0  0
   -1.8460    3.8680    0.3930 C   0  0  0  0  0  0  0  0  0  0  0  0
    0.2870    3.3360    1.4000 C   0  0  0  0  0  0  0  0  0  0  0  0
   -1.4000    5.1680    0.1390 C   0  0  0  0  0  0  0  0  0  0  0  0
    0.7310    4.6370    1.1460 C   0  0  0  0  0  0  0  0  0  0  0  0
    6.5120   -3.6900    5.2220 C   0  0  0  0  0  0  0  0  0  0  0  0
    5.6310   -1.1370    2.4250 C   0  0  0  0  0  0  0  0  0  0  0  0
    7.5900   -3.8110    6.1030 C   0  0  0  0  0  0  0  0  0  0  0  0
    7.3900   -3.6850    7.4770 C   0  0  0  0  0  0  0  0  0  0  0  0
    5.8970   -3.3100    9.4470 C   0  0  0  0  0  0  0  0  0  0  0  0
    2.9410   -0.6380    2.8530 H   0  0  0  0  0  0  0  0  0  0  0  0
    2.2690   -2.9600    3.0490 H   0  0  0  0  0  0  0  0  0  0  0  0
    3.3820   -3.4200    1.7380 H   0  0  0  0  0  0  0  0  0  0  0  0
   -1.1280    1.2210    2.2930 H   0  0  0  0  0  0  0  0  0  0  0  0
   -2.5780    1.5180    1.3040 H   0  0  0  0  0  0  0  0  0  0  0  0
    4.0380   -3.1400    7.4810 H   0  0  0  0  0  0  0  0  0  0  0  0
    1.9030   -3.0880   -2.2080 H   0  0  0  0  0  0  0  0  0  0  0  0
    5.7900   -3.2540    2.1180 H   0  0  0  0  0  0  0  0  0  0  0  0
    6.3710   -2.6920    3.7040 H   0  0  0  0  0  0  0  0  0  0  0  0
    4.4820    0.1820    1.1990 H   0  0  0  0  0  0  0  0  0  0  0  0
    4.7020   -1.4510    0.5260 H   0  0  0  0  0  0  0  0  0  0  0  0
   -2.8410    3.5740    0.0920 H   0  0  0  0  0  0  0  0  0  0  0  0
    0.9470    2.6280    1.8800 H   0  0  0  0  0  0  0  0  0  0  0  0
   -2.0520    5.8760   -0.3510 H   0  0  0  0  0  0  0  0  0  0  0  0
    1.7280    4.9330    1.4360 H   0  0  0  0  0  0  0  0  0  0  0  0
    6.6650   -3.7910    4.1580 H   0  0  0  0  0  0  0  0  0  0  0  0
    6.5870   -0.9610    1.9320 H   0  0  0  0  0  0  0  0  0  0  0  0
    5.5250   -0.4520    3.2660 H   0  0  0  0  0  0  0  0  0  0  0  0
    8.5810   -4.0030    5.7180 H   0  0  0  0  0  0  0  0  0  0  0  0
    8.2250   -3.7760    8.1550 H   0  0  0  0  0  0  0  0  0  0  0  0
    4.8420   -3.1230    9.6460 H   0  0  0  0  0  0  0  0  0  0  0  0
    6.4910   -2.4790    9.8270 H   0  0  0  0  0  0  0  0  0  0  0  0
    6.2030   -4.2320    9.9430 H   0  0  0  0  0  0  0  0  0  0  0  0
  1  2  1  0  0  0  0
  1  3  1  0  0  0  0
  1  4  2  0  0  0  0
  2  5  1  0  0  0  0
  2 15  1  0  0  0  0
  3  6  1  0  0  0  0
  3  9  2  0  0  0  0
  4  7  1  0  0  0  0
  5  6  2  0  0  0  0
  7  8  2  0  0  0  0
  7 12  1  0  0  0  0
  8  9  1  0  0  0  0
  9 18  1  0  0  0  0
 10 11  1  0  0  0  0
 10 13  1  0  0  0  0
 10 20  1  0  0  0  0
 11 14  1  0  0  0  0
 11 16  2  0  0  0  0
 12 13  1  0  0  0  0
 12 24  1  0  0  0  0
 12 34  1  0  0  0  0
 13 35  1  0  0  0  0
 13 36  1  0  0  0  0
 14 17  2  0  0  0  0
 14 29  1  0  0  0  0
 15 19  1  0  0  0  0
 15 37  1  0  0  0  0
 15 38  1  0  0  0  0
 17 22  1  0  0  0  0
 17 39  1  0  0  0  0
 18 40  1  0  0  0  0
 19 25  2  0  0  0  0
 19 26  1  0  0  0  0
 20 30  1  0  0  0  0
 20 41  1  0  0  0  0
 20 42  1  0  0  0  0
 21 23  1  0  0  0  0
 21 27  2  0  0  0  0
 21 28  1  0  0  0  0
 22 32  2  0  0  0  0
 22 33  1  0  0  0  0
 24 30  1  0  0  0  0
 24 43  1  0  0  0  0
 24 44  1  0  0  0  0
 25 27  1  0  0  0  0
 25 45  1  0  0  0  0
 26 28  2  0  0  0  0
 26 46  1  0  0  0  0
 27 47  1  0  0  0  0
 28 48  1  0  0  0  0
 29 31  2  0  0  0  0
 29 49  1  0  0  0  0
 30 50  1  0  0  0  0
 30 51  1  0  0  0  0
 31 32  1  0  0  0  0
 31 52  1  0  0  0  0
 32 53  1  0  0  0  0
 33 54  1  0  0  0  0
 33 55  1  0  0  0  0
 33 56  1  0  0  0  0
M  END
>  <$CLUSTER>
259

>  <INDEX>
164383

$$$$
Asinex ASN 06942065
  MOE2020           3D

 52 56  0  0  0  0  0  0  0  0999 V2000
    0.0210    1.3080   -0.9130 C   0  0  0  0  0  0  0  0  0  0  0  0
    1.2110    0.6800   -0.6460 N   0  0  0  0  0  0  0  0  0  0  0  0
   -0.9870    0.5750   -0.3760 N   0  0  0  0  0  0  0  0  0  0  0  0
    0.2340    2.4060   -1.5910 N   0  0  0  0  0  0  0  0  0  0  0  0
    2.1850    1.4430   -1.1970 C   0  0  0  0  0  0  0  0  0  0  0  0
    0.9950   -0.4850    0.0780 C   0  0  0  0  0  0  0  0  0  0  0  0
    1.6170    2.4910   -1.7730 N   0  0  0  0  0  0  0  0  0  0  0  0
   -0.4130   -0.5380    0.2440 C   0  0  0  0  0  0  0  0  0  0  0  0
    3.8640    1.0620   -1.1260 S   0  0  0  0  0  0  0  0  0  0  0  0
   -2.3890    0.9110   -0.4270 C   0  0  0  0  0  0  0  0  0  0  0  0
    4.4940    3.7620   -1.2530 C   0  0  0  0  0  0  0  0  0  0  0  0
    3.4230    4.5260   -1.5720 N   0  0  0  0  0  0  0  0  0  0  0  0
    5.2790    4.0570   -0.3590 O   0  0  0  0  0  0  0  0  0  0  0  0
    4.5830    2.4510   -2.0280 C   0  0  0  0  0  0  0  0  0  0  0  0
   -2.8160    1.6420    0.8370 C   0  0  0  0  0  0  0  0  0  0  0  0
   -3.6300    2.9890    3.1670 C   0  0  0  0  0  0  0  0  0  0  0  0
    1.8670   -1.4270    0.5660 C   0  0  0  0  0  0  0  0  0  0  0  0
   -4.0260    3.5490    4.3100 F   0  0  0  0  0  0  0  0  0  0  0  0
   -0.9750   -1.5890    0.9340 C   0  0  0  0  0  0  0  0  0  0  0  0
    3.0940    5.8120   -0.9900 C   0  0  0  0  0  0  0  0  0  0  0  0
   -2.9370    3.0430    0.8490 C   0  0  0  0  0  0  0  0  0  0  0  0
   -3.1050    0.9300    2.0130 C   0  0  0  0  0  0  0  0  0  0  0  0
   -3.3410    3.7110    2.0090 C   0  0  0  0  0  0  0  0  0  0  0  0
   -3.5100    1.5990    3.1700 C   0  0  0  0  0  0  0  0  0  0  0  0
    1.5880    6.0560   -1.0000 C   0  0  0  0  0  0  0  0  0  0  0  0
    3.8330    6.9340   -1.7130 C   0  0  0  0  0  0  0  0  0  0  0  0
    1.2870   -2.4880    1.2640 C   0  0  0  0  0  0  0  0  0  0  0  0
   -0.1120   -2.5680    1.4460 C   0  0  0  0  0  0  0  0  0  0  0  0
    2.9630    8.1510   -1.2090 C   0  0  0  0  0  0  0  0  0  0  0  0
    1.5990    7.6150   -0.7760 C   0  0  0  0  0  0  0  0  0  0  0  0
   -2.9720   -0.0040   -0.5250 H   0  0  0  0  0  0  0  0  0  0  0  0
   -2.5720    1.5520   -1.2890 H   0  0  0  0  0  0  0  0  0  0  0  0
    2.7970    4.1680   -2.2790 H   0  0  0  0  0  0  0  0  0  0  0  0
    4.0510    2.5670   -2.9720 H   0  0  0  0  0  0  0  0  0  0  0  0
    5.6320    2.2330   -2.2260 H   0  0  0  0  0  0  0  0  0  0  0  0
    2.9340   -1.3520    0.4190 H   0  0  0  0  0  0  0  0  0  0  0  0
   -2.0440   -1.6570    1.0760 H   0  0  0  0  0  0  0  0  0  0  0  0
    3.4190    5.8020    0.0500 H   0  0  0  0  0  0  0  0  0  0  0  0
   -2.7160    3.6070   -0.0450 H   0  0  0  0  0  0  0  0  0  0  0  0
   -3.0130   -0.1460    2.0220 H   0  0  0  0  0  0  0  0  0  0  0  0
   -3.4290    4.7870    2.0080 H   0  0  0  0  0  0  0  0  0  0  0  0
   -3.7300    1.0400    4.0670 H   0  0  0  0  0  0  0  0  0  0  0  0
    1.0820    5.5290   -0.1910 H   0  0  0  0  0  0  0  0  0  0  0  0
    1.1340    5.7820   -1.9520 H   0  0  0  0  0  0  0  0  0  0  0  0
    3.7920    6.8210   -2.7960 H   0  0  0  0  0  0  0  0  0  0  0  0
    4.8730    7.0130   -1.3950 H   0  0  0  0  0  0  0  0  0  0  0  0
    1.9200   -3.2620    1.6730 H   0  0  0  0  0  0  0  0  0  0  0  0
   -0.5260   -3.4030    1.9920 H   0  0  0  0  0  0  0  0  0  0  0  0
    2.8370    8.8730   -2.0150 H   0  0  0  0  0  0  0  0  0  0  0  0
    3.4560    8.6320   -0.3640 H   0  0  0  0  0  0  0  0  0  0  0  0
    1.4330    7.8370    0.2780 H   0  0  0  0  0  0  0  0  0  0  0  0
    0.8140    8.0790   -1.3730 H   0  0  0  0  0  0  0  0  0  0  0  0
  1  2  1  0  0  0  0
  1  3  1  0  0  0  0
  1  4  2  0  0  0  0
  2  5  1  0  0  0  0
  2  6  1  0  0  0  0
  3  8  1  0  0  0  0
  3 10  1  0  0  0  0
  4  7  1  0  0  0  0
  5  7  2  0  0  0  0
  5  9  1  0  0  0  0
  6  8  2  0  0  0  0
  6 17  1  0  0  0  0
  8 19  1  0  0  0  0
  9 14  1  0  0  0  0
 10 15  1  0  0  0  0
 10 31  1  0  0  0  0
 10 32  1  0  0  0  0
 11 12  1  0  0  0  0
 11 13  2  0  0  0  0
 11 14  1  0  0  0  0
 12 20  1  0  0  0  0
 12 33  1  0  0  0  0
 14 34  1  0  0  0  0
 14 35  1  0  0  0  0
 15 21  2  0  0  0  0
 15 22  1  0  0  0  0
 16 18  1  0  0  0  0
 16 23  2  0  0  0  0
 16 24  1  0  0  0  0
 17 27  2  0  0  0  0
 17 36  1  0  0  0  0
 19 28  2  0  0  0  0
 19 37  1  0  0  0  0
 20 25  1  0  0  0  0
 20 26  1  0  0  0  0
 20 38  1  0  0  0  0
 21 23  1  0  0  0  0
 21 39  1  0  0  0  0
 22 24  2  0  0  0  0
 22 40  1  0  0  0  0
 23 41  1  0  0  0  0
 24 42  1  0  0  0  0
 25 30  1  0  0  0  0
 25 43  1  0  0  0  0
 25 44  1  0  0  0  0
 26 29  1  0  0  0  0
 26 45  1  0  0  0  0
 26 46  1  0  0  0  0
 27 28  1  0  0  0  0
 27 47  1  0  0  0  0
 28 48  1  0  0  0  0
 29 30  1  0  0  0  0
 29 49  1  0  0  0  0
 29 50  1  0  0  0  0
 30 51  1  0  0  0  0
 30 52  1  0  0  0  0
M  END
>  <$CLUSTER>
260

>  <INDEX>
164818

$$$$
Asinex ASN 07029028
  MOE2020           3D

 59 61  0  0  1  0  0  0  0  0999 V2000
   -1.4480    2.6410    0.7680 C   0  0  0  0  0  0  0  0  0  0  0  0
   -1.1630    1.3380    0.4970 N   0  0  0  0  0  0  0  0  0  0  0  0
    2.2530   -2.7210   -0.3780 C   0  0  0  0  0  0  0  0  0  0  0  0
    3.6650   -3.0050   -0.8130 C   0  0  3  0  0  0  0  0  0  0  0  0
    4.6740   -2.2630   -0.0090 N   0  0  0  0  0  0  0  0  0  0  0  0
    1.8860   -1.4190   -0.6350 N   0  0  0  0  0  0  0  0  0  0  0  0
    5.8590   -1.7970   -0.4950 C   0  0  0  0  0  0  0  0  0  0  0  0
   -1.3890    3.0590    2.2160 C   0  0  0  0  0  0  0  0  0  0  0  0
   -1.1890    0.8160   -0.8750 C   0  0  0  0  0  0  0  0  0  0  0  0
   -0.8030    0.2860    1.4560 C   0  0  0  0  0  0  0  0  0  0  0  0
    4.0340   -4.5040   -0.7620 C   0  0  0  0  0  0  0  0  0  0  0  0
   -1.7450    3.4790   -0.0890 O   0  0  0  0  0  0  0  0  0  0  0  0
    1.5510   -3.5750    0.1570 O   0  0  0  0  0  0  0  0  0  0  0  0
    6.2830   -1.9640   -1.6350 O   0  0  0  0  0  0  0  0  0  0  0  0
    3.1690   -5.3750   -1.6670 C   0  0  0  0  0  0  0  0  0  0  0  0
    0.5640   -0.8880   -0.2950 C   0  0  0  0  0  0  0  0  0  0  0  0
    0.1530    0.2080   -1.2790 C   0  0  0  0  0  0  0  0  0  0  0  0
    0.5520   -0.3410    1.1330 C   0  0  0  0  0  0  0  0  0  0  0  0
   -1.1400    4.4020    2.4970 C   0  0  0  0  0  0  0  0  0  0  0  0
   -1.5920    2.1460    3.2420 C   0  0  0  0  0  0  0  0  0  0  0  0
    3.5390   -5.5750   -2.9940 C   0  0  0  0  0  0  0  0  0  0  0  0
    2.7290   -6.3430   -3.8310 C   0  0  0  0  0  0  0  0  0  0  0  0
   -1.5320    2.5780    4.5700 C   0  0  0  0  0  0  0  0  0  0  0  0
   -1.0800    4.8280    3.8250 C   0  0  0  0  0  0  0  0  0  0  0  0
   -1.2740    3.9160    4.8610 C   0  0  0  0  0  0  0  0  0  0  0  0
    3.0190   -6.6010   -5.1080 F   0  0  0  0  0  0  0  0  0  0  0  0
    1.1650   -6.6660   -2.0250 C   0  0  0  0  0  0  0  0  0  0  0  0
    6.6520   -1.0630    0.5520 C   0  0  0  0  0  0  0  0  0  0  0  0
    1.9720   -5.8980   -1.1860 C   0  0  0  0  0  0  0  0  0  0  0  0
    1.5440   -6.8890   -3.3460 C   0  0  0  0  0  0  0  0  0  0  0  0
   -1.2050    4.3760    6.2810 C   0  0  0  0  0  0  0  0  0  0  0  0
    3.6910   -2.6650   -1.8480 H   0  0  0  0  0  0  0  0  0  0  0  0
    4.4660   -2.0930    0.9650 H   0  0  0  0  0  0  0  0  0  0  0  0
    2.5560   -0.8050   -1.0760 H   0  0  0  0  0  0  0  0  0  0  0  0
   -1.4260    1.6320   -1.5580 H   0  0  0  0  0  0  0  0  0  0  0  0
   -1.9590    0.0480   -0.9450 H   0  0  0  0  0  0  0  0  0  0  0  0
   -1.5660   -0.4920    1.4290 H   0  0  0  0  0  0  0  0  0  0  0  0
   -0.7610    0.7200    2.4550 H   0  0  0  0  0  0  0  0  0  0  0  0
    3.9190   -4.8530    0.2640 H   0  0  0  0  0  0  0  0  0  0  0  0
    5.0740   -4.6140   -1.0690 H   0  0  0  0  0  0  0  0  0  0  0  0
   -0.1540   -1.7050   -0.3620 H   0  0  0  0  0  0  0  0  0  0  0  0
    0.9130    0.9890   -1.2840 H   0  0  0  0  0  0  0  0  0  0  0  0
    0.0660   -0.2210   -2.2770 H   0  0  0  0  0  0  0  0  0  0  0  0
    0.7450   -1.1560    1.8310 H   0  0  0  0  0  0  0  0  0  0  0  0
    1.3300    0.4160    1.2340 H   0  0  0  0  0  0  0  0  0  0  0  0
   -0.9950    5.1080    1.6930 H   0  0  0  0  0  0  0  0  0  0  0  0
   -1.7950    1.1100    3.0160 H   0  0  0  0  0  0  0  0  0  0  0  0
    4.4500   -5.1370   -3.3740 H   0  0  0  0  0  0  0  0  0  0  0  0
   -1.6860    1.8720    5.3730 H   0  0  0  0  0  0  0  0  0  0  0  0
   -0.8830    5.8660    4.0500 H   0  0  0  0  0  0  0  0  0  0  0  0
    0.2450   -7.0880   -1.6490 H   0  0  0  0  0  0  0  0  0  0  0  0
    6.0860   -1.0350    1.4830 H   0  0  0  0  0  0  0  0  0  0  0  0
    6.8460   -0.0450    0.2140 H   0  0  0  0  0  0  0  0  0  0  0  0
    7.5990   -1.5770    0.7180 H   0  0  0  0  0  0  0  0  0  0  0  0
    1.6690   -5.7100   -0.1670 H   0  0  0  0  0  0  0  0  0  0  0  0
    0.9190   -7.4850   -3.9940 H   0  0  0  0  0  0  0  0  0  0  0  0
   -1.3810    3.5300    6.9460 H   0  0  0  0  0  0  0  0  0  0  0  0
   -1.9650    5.1380    6.4540 H   0  0  0  0  0  0  0  0  0  0  0  0
   -0.2190    4.7960    6.4790 H   0  0  0  0  0  0  0  0  0  0  0  0
  1  2  1  0  0  0  0
  1  8  1  0  0  0  0
  1 12  2  0  0  0  0
  2  9  1  0  0  0  0
  2 10  1  0  0  0  0
  3  4  1  0  0  0  0
  3  6  1  0  0  0  0
  3 13  2  0  0  0  0
  4  5  1  0  0  0  0
  4 11  1  0  0  0  0
  4 32  1  0  0  0  0
  5  7  1  0  0  0  0
  5 33  1  0  0  0  0
  6 16  1  0  0  0  0
  6 34  1  0  0  0  0
  7 14  2  0  0  0  0
  7 28  1  0  0  0  0
  8 19  1  0  0  0  0
  8 20  2  0  0  0  0
  9 17  1  0  0  0  0
  9 35  1  0  0  0  0
  9 36  1  0  0  0  0
 10 18  1  0  0  0  0
 10 37  1  0  0  0  0
 10 38  1  0  0  0  0
 11 15  1  0  0  0  0
 11 39  1  0  0  0  0
 11 40  1  0  0  0  0
 15 21  2  0  0  0  0
 15 29  1  0  0  0  0
 16 17  1  0  0  0  0
 16 18  1  0  0  0  0
 16 41  1  0  0  0  0
 17 42  1  0  0  0  0
 17 43  1  0  0  0  0
 18 44  1  0  0  0  0
 18 45  1  0  0  0  0
 19 24  2  0  0  0  0
 19 46  1  0  0  0  0
 20 23  1  0  0  0  0
 20 47  1  0  0  0  0
 21 22  1  0  0  0  0
 21 48  1  0  0  0  0
 22 26  1  0  0  0  0
 22 30  2  0  0  0  0
 23 25  2  0  0  0  0
 23 49  1  0  0  0  0
 24 25  1  0  0  0  0
 24 50  1  0  0  0  0
 25 31  1  0  0  0  0
 27 29  2  0  0  0  0
 27 30  1  0  0  0  0
 27 51  1  0  0  0  0
 28 52  1  0  0  0  0
 28 53  1  0  0  0  0
 28 54  1  0  0  0  0
 29 55  1  0  0  0  0
 30 56  1  0  0  0  0
 31 57  1  0  0  0  0
 31 58  1  0  0  0  0
 31 59  1  0  0  0  0
M  END
>  <$CLUSTER>
261

>  <INDEX>
165627

$$$$
Maybridge HTS 11995
  MOE2020           3D

 38 41  0  0  0  0  0  0  0  0999 V2000
   -0.9410    0.3060    1.8080 N   0  0  0  0  0  0  0  0  0  0  0  0
   -2.3130    0.4400    2.0400 C   0  0  0  0  0  0  0  0  0  0  0  0
   -0.4130   -0.0590    0.5530 C   0  0  0  0  0  0  0  0  0  0  0  0
   -3.2190    0.2190    1.0490 N   0  0  0  0  0  0  0  0  0  0  0  0
   -1.2970   -0.3080   -0.4300 C   0  0  0  0  0  0  0  0  0  0  0  0
   -2.5120    0.7900    3.2940 N   0  0  0  0  0  0  0  0  0  0  0  0
   -2.7400   -0.1310   -0.1090 C   0  0  0  0  0  0  0  0  0  0  0  0
   -0.2700    0.5810    2.9590 N   0  0  0  0  0  0  0  0  0  0  0  0
   -1.2570    0.8620    3.8040 C   0  0  0  0  0  0  0  0  0  0  0  0
    0.9630   -0.1820    0.4770 N   0  0  0  0  0  0  0  0  0  0  0  0
   -3.7280   -0.3850   -1.2220 C   0  0  0  0  0  0  0  0  0  0  0  0
    1.8350   -0.1830   -0.6280 C   0  0  0  0  0  0  0  0  0  0  0  0
    3.6470   -0.3220   -2.7880 C   0  0  0  0  0  0  0  0  0  0  0  0
    1.5200    0.3810   -1.8720 C   0  0  0  0  0  0  0  0  0  0  0  0
    3.0820   -0.8210   -0.4950 C   0  0  0  0  0  0  0  0  0  0  0  0
    3.9800   -0.8890   -1.5620 C   0  0  0  0  0  0  0  0  0  0  0  0
    2.4190    0.3150   -2.9420 C   0  0  0  0  0  0  0  0  0  0  0  0
   -5.0710    0.0020   -1.0590 C   0  0  0  0  0  0  0  0  0  0  0  0
   -3.3490   -1.0100   -2.4190 C   0  0  0  0  0  0  0  0  0  0  0  0
    4.6040   -0.3960   -3.9310 C   0  0  0  0  0  0  0  0  0  0  0  0
   -6.0060   -0.2210   -2.0730 C   0  0  0  0  0  0  0  0  0  0  0  0
   -4.2870   -1.2320   -3.4320 C   0  0  0  0  0  0  0  0  0  0  0  0
   -5.6130   -0.8360   -3.2590 C   0  0  0  0  0  0  0  0  0  0  0  0
   -0.9730   -0.6230   -1.4110 H   0  0  0  0  0  0  0  0  0  0  0  0
   -1.0710    1.1310    4.8330 H   0  0  0  0  0  0  0  0  0  0  0  0
    1.4220   -0.2900    1.3700 H   0  0  0  0  0  0  0  0  0  0  0  0
    0.5690    0.8740   -2.0070 H   0  0  0  0  0  0  0  0  0  0  0  0
    3.3500   -1.2670    0.4510 H   0  0  0  0  0  0  0  0  0  0  0  0
    4.9330   -1.3820   -1.4360 H   0  0  0  0  0  0  0  0  0  0  0  0
    2.1590    0.7600   -3.8910 H   0  0  0  0  0  0  0  0  0  0  0  0
   -5.3820    0.4770   -0.1400 H   0  0  0  0  0  0  0  0  0  0  0  0
   -2.3250   -1.3220   -2.5590 H   0  0  0  0  0  0  0  0  0  0  0  0
    5.5020   -0.9290   -3.6190 H   0  0  0  0  0  0  0  0  0  0  0  0
    4.8710    0.6120   -4.2470 H   0  0  0  0  0  0  0  0  0  0  0  0
    4.1380   -0.9260   -4.7620 H   0  0  0  0  0  0  0  0  0  0  0  0
   -7.0330    0.0830   -1.9370 H   0  0  0  0  0  0  0  0  0  0  0  0
   -3.9840   -1.7110   -4.3510 H   0  0  0  0  0  0  0  0  0  0  0  0
   -6.3350   -1.0060   -4.0440 H   0  0  0  0  0  0  0  0  0  0  0  0
  1  2  1  0  0  0  0
  1  3  1  0  0  0  0
  1  8  1  0  0  0  0
  2  4  1  0  0  0  0
  2  6  2  0  0  0  0
  3  5  2  0  0  0  0
  3 10  1  0  0  0  0
  4  7  2  0  0  0  0
  5  7  1  0  0  0  0
  5 24  1  0  0  0  0
  6  9  1  0  0  0  0
  7 11  1  0  0  0  0
  8  9  2  0  0  0  0
  9 25  1  0  0  0  0
 10 12  1  0  0  0  0
 10 26  1  0  0  0  0
 11 18  2  0  0  0  0
 11 19  1  0  0  0  0
 12 14  1  0  0  0  0
 12 15  2  0  0  0  0
 13 16  2  0  0  0  0
 13 17  1  0  0  0  0
 13 20  1  0  0  0  0
 14 17  2  0  0  0  0
 14 27  1  0  0  0  0
 15 16  1  0  0  0  0
 15 28  1  0  0  0  0
 16 29  1  0  0  0  0
 17 30  1  0  0  0  0
 18 21  1  0  0  0  0
 18 31  1  0  0  0  0
 19 22  2  0  0  0  0
 19 32  1  0  0  0  0
 20 33  1  0  0  0  0
 20 34  1  0  0  0  0
 20 35  1  0  0  0  0
 21 23  2  0  0  0  0
 21 36  1  0  0  0  0
 22 23  1  0  0  0  0
 22 37  1  0  0  0  0
 23 38  1  0  0  0  0
M  END
>  <$CLUSTER>
262

>  <INDEX>
552453

$$$$
Asinex ASN 07101930
  MOE2020           3D

 45 48  0  0  0  0  0  0  0  0999 V2000
    0.2890    0.9000    0.3420 N   0  0  0  0  0  0  0  0  0  0  0  0
   -0.3810   -0.1490   -0.3350 C   0  0  0  0  0  0  0  0  0  0  0  0
    1.3580    0.6740    1.2190 C   0  0  0  0  0  0  0  0  0  0  0  0
    0.0630   -1.4090   -0.1170 C   0  0  0  0  0  0  0  0  0  0  0  0
    1.8230   -0.5810    1.4530 N   0  0  0  0  0  0  0  0  0  0  0  0
    1.7810    1.8220    1.7080 N   0  0  0  0  0  0  0  0  0  0  0  0
    1.2110   -1.5360    0.8210 C   0  0  0  0  0  0  0  0  0  0  0  0
   -1.4380    0.1840   -1.1970 N   0  0  0  0  0  0  0  0  0  0  0  0
    0.0640    2.2420    0.2780 N   0  0  0  0  0  0  0  0  0  0  0  0
   -5.1090    0.3580   -3.2480 C   0  0  0  0  0  0  0  0  0  0  0  0
   -4.0790   -0.0160   -2.4670 N   0  0  0  0  0  0  0  0  0  0  0  0
    0.9730    2.7320    1.1130 C   0  0  0  0  0  0  0  0  0  0  0  0
   -5.1610   -0.2460   -4.6300 C   0  0  0  0  0  0  0  0  0  0  0  0
   -2.4990    1.1170   -0.8200 C   0  0  0  0  0  0  0  0  0  0  0  0
   -1.5560   -0.3590   -2.5480 C   0  0  0  0  0  0  0  0  0  0  0  0
   -3.9010    0.4950   -1.0940 C   0  0  0  0  0  0  0  0  0  0  0  0
   -2.9800   -0.9480   -2.7830 C   0  0  0  0  0  0  0  0  0  0  0  0
   -5.9910    1.1490   -2.9030 O   0  0  0  0  0  0  0  0  0  0  0  0
   -6.4070   -0.3340   -5.2570 C   0  0  0  0  0  0  0  0  0  0  0  0
   -0.5020   -2.6910   -0.6400 C   0  0  0  0  0  0  0  0  0  0  0  0
   -6.4970   -0.8850   -6.5370 C   0  0  0  0  0  0  0  0  0  0  0  0
   -7.6440   -1.0160   -7.2070 F   0  0  0  0  0  0  0  0  0  0  0  0
    1.7160   -2.9990    1.0530 C   0  0  0  0  0  0  0  0  0  0  0  0
   -4.0140   -0.6820   -5.2760 C   0  0  0  0  0  0  0  0  0  0  0  0
   -4.1100   -1.2310   -6.5580 C   0  0  0  0  0  0  0  0  0  0  0  0
   -5.3490   -1.3350   -7.1860 C   0  0  0  0  0  0  0  0  0  0  0  0
    1.0630    3.7910    1.3060 H   0  0  0  0  0  0  0  0  0  0  0  0
   -2.3940    2.0330   -1.4020 H   0  0  0  0  0  0  0  0  0  0  0  0
   -2.4110    1.3490    0.2410 H   0  0  0  0  0  0  0  0  0  0  0  0
   -0.8160   -1.1480   -2.6820 H   0  0  0  0  0  0  0  0  0  0  0  0
   -1.3740    0.4370   -3.2710 H   0  0  0  0  0  0  0  0  0  0  0  0
   -4.0500   -0.3320   -0.4000 H   0  0  0  0  0  0  0  0  0  0  0  0
   -4.6560    1.2610   -0.9140 H   0  0  0  0  0  0  0  0  0  0  0  0
   -3.0640   -1.2320   -3.8320 H   0  0  0  0  0  0  0  0  0  0  0  0
   -3.0920   -1.8330   -2.1570 H   0  0  0  0  0  0  0  0  0  0  0  0
   -7.2940    0.0220   -4.7550 H   0  0  0  0  0  0  0  0  0  0  0  0
    0.0940   -3.5270   -0.2740 H   0  0  0  0  0  0  0  0  0  0  0  0
   -0.4810   -2.6790   -1.7300 H   0  0  0  0  0  0  0  0  0  0  0  0
   -1.5310   -2.8010   -0.2970 H   0  0  0  0  0  0  0  0  0  0  0  0
    1.1130   -3.6890    0.4630 H   0  0  0  0  0  0  0  0  0  0  0  0
    1.6270   -3.2510    2.1100 H   0  0  0  0  0  0  0  0  0  0  0  0
    2.7600   -3.0760    0.7480 H   0  0  0  0  0  0  0  0  0  0  0  0
   -3.0520   -0.5980   -4.7920 H   0  0  0  0  0  0  0  0  0  0  0  0
   -3.2200   -1.5760   -7.0640 H   0  0  0  0  0  0  0  0  0  0  0  0
   -5.4200   -1.7640   -8.1750 H   0  0  0  0  0  0  0  0  0  0  0  0
  1  2  1  0  0  0  0
  1  3  1  0  0  0  0
  1  9  1  0  0  0  0
  2  4  2  0  0  0  0
  2  8  1  0  0  0  0
  3  5  1  0  0  0  0
  3  6  2  0  0  0  0
  4  7  1  0  0  0  0
  4 20  1  0  0  0  0
  5  7  2  0  0  0  0
  6 12  1  0  0  0  0
  7 23  1  0  0  0  0
  8 14  1  0  0  0  0
  8 15  1  0  0  0  0
  9 12  2  0  0  0  0
 10 11  1  0  0  0  0
 10 13  1  0  0  0  0
 10 18  2  0  0  0  0
 11 16  1  0  0  0  0
 11 17  1  0  0  0  0
 12 27  1  0  0  0  0
 13 19  2  0  0  0  0
 13 24  1  0  0  0  0
 14 16  1  0  0  0  0
 14 28  1  0  0  0  0
 14 29  1  0  0  0  0
 15 17  1  0  0  0  0
 15 30  1  0  0  0  0
 15 31  1  0  0  0  0
 16 32  1  0  0  0  0
 16 33  1  0  0  0  0
 17 34  1  0  0  0  0
 17 35  1  0  0  0  0
 19 21  1  0  0  0  0
 19 36  1  0  0  0  0
 20 37  1  0  0  0  0
 20 38  1  0  0  0  0
 20 39  1  0  0  0  0
 21 22  1  0  0  0  0
 21 26  2  0  0  0  0
 23 40  1  0  0  0  0
 23 41  1  0  0  0  0
 23 42  1  0  0  0  0
 24 25  2  0  0  0  0
 24 43  1  0  0  0  0
 25 26  1  0  0  0  0
 25 44  1  0  0  0  0
 26 45  1  0  0  0  0
M  END
>  <$CLUSTER>
263

>  <INDEX>
165979

$$$$
Asinex ASN 07184508
  MOE2020           3D

 42 45  0  0  0  0  0  0  0  0999 V2000
    1.0680   -0.6300    0.6970 C   0  0  0  0  0  0  0  0  0  0  0  0
    1.7730   -0.6330    1.8170 N   0  0  0  0  0  0  0  0  0  0  0  0
    1.2450   -1.8220    0.0280 N   0  0  0  0  0  0  0  0  0  0  0  0
    0.2710    0.4900    0.1870 C   0  0  0  0  0  0  0  0  0  0  0  0
   -0.9920    0.3780   -0.4180 C   0  0  0  0  0  0  0  0  0  0  0  0
    2.3840   -1.8590    1.8730 C   0  0  0  0  0  0  0  0  0  0  0  0
    2.0710   -2.6150    0.7720 C   0  0  0  0  0  0  0  0  0  0  0  0
   -1.8450   -1.2020   -0.5570 S   0  0  0  0  0  0  0  0  0  0  0  0
   -2.7490   -0.5010   -3.0840 C   0  0  0  0  0  0  0  0  0  0  0  0
   -1.6730    1.4610   -0.8790 N   0  0  0  0  0  0  0  0  0  0  0  0
   -2.5490    0.8100   -3.3590 N   0  0  0  0  0  0  0  0  0  0  0  0
   -2.5030   -1.3930   -3.8880 O   0  0  0  0  0  0  0  0  0  0  0  0
   -3.2210   -0.7780   -1.6610 C   0  0  0  0  0  0  0  0  0  0  0  0
   -2.1240    1.4780   -4.5180 C   0  0  0  0  0  0  0  0  0  0  0  0
   -1.2700    2.8870   -6.7930 C   0  0  0  0  0  0  0  0  0  0  0  0
   -0.8750    3.6270   -7.8290 F   0  0  0  0  0  0  0  0  0  0  0  0
    0.8070    1.7810    0.3200 C   0  0  0  0  0  0  0  0  0  0  0  0
   -1.7720    0.7920   -5.6840 C   0  0  0  0  0  0  0  0  0  0  0  0
   -2.0430    2.8780   -4.5060 C   0  0  0  0  0  0  0  0  0  0  0  0
   -1.3460    1.4970   -6.8160 C   0  0  0  0  0  0  0  0  0  0  0  0
   -1.6180    3.5790   -5.6360 C   0  0  0  0  0  0  0  0  0  0  0  0
    3.2430   -2.3850    2.8570 C   0  0  0  0  0  0  0  0  0  0  0  0
    2.5590   -3.9100    0.5550 C   0  0  0  0  0  0  0  0  0  0  0  0
   -1.1080    2.6790   -0.7400 C   0  0  0  0  0  0  0  0  0  0  0  0
    0.1180    2.8920   -0.1490 C   0  0  0  0  0  0  0  0  0  0  0  0
    3.4100   -4.4250    1.5380 C   0  0  0  0  0  0  0  0  0  0  0  0
    3.7480   -3.6790    2.6700 C   0  0  0  0  0  0  0  0  0  0  0  0
    0.8340   -2.0670   -0.8610 H   0  0  0  0  0  0  0  0  0  0  0  0
   -2.7430    1.4250   -2.5810 H   0  0  0  0  0  0  0  0  0  0  0  0
   -3.7190    0.1120   -1.2760 H   0  0  0  0  0  0  0  0  0  0  0  0
   -3.9260   -1.6090   -1.6800 H   0  0  0  0  0  0  0  0  0  0  0  0
    1.7690    1.9120    0.7940 H   0  0  0  0  0  0  0  0  0  0  0  0
   -1.8290   -0.2860   -5.7120 H   0  0  0  0  0  0  0  0  0  0  0  0
   -2.3130    3.4200   -3.6120 H   0  0  0  0  0  0  0  0  0  0  0  0
   -1.0750    0.9590   -7.7130 H   0  0  0  0  0  0  0  0  0  0  0  0
   -1.5590    4.6570   -5.6130 H   0  0  0  0  0  0  0  0  0  0  0  0
    3.5050   -1.8080    3.7310 H   0  0  0  0  0  0  0  0  0  0  0  0
    2.2930   -4.4790   -0.3230 H   0  0  0  0  0  0  0  0  0  0  0  0
   -1.6480    3.5360   -1.1140 H   0  0  0  0  0  0  0  0  0  0  0  0
    0.5280    3.8860   -0.0540 H   0  0  0  0  0  0  0  0  0  0  0  0
    3.8140   -5.4200    1.4200 H   0  0  0  0  0  0  0  0  0  0  0  0
    4.4080   -4.1050    3.4110 H   0  0  0  0  0  0  0  0  0  0  0  0
  1  2  2  0  0  0  0
  1  3  1  0  0  0  0
  1  4  1  0  0  0  0
  2  6  1  0  0  0  0
  3  7  1  0  0  0  0
  3 28  1  0  0  0  0
  4  5  2  0  0  0  0
  4 17  1  0  0  0  0
  5  8  1  0  0  0  0
  5 10  1  0  0  0  0
  6  7  2  0  0  0  0
  6 22  1  0  0  0  0
  7 23  1  0  0  0  0
  8 13  1  0  0  0  0
  9 11  1  0  0  0  0
  9 12  2  0  0  0  0
  9 13  1  0  0  0  0
 10 24  2  0  0  0  0
 11 14  1  0  0  0  0
 11 29  1  0  0  0  0
 13 30  1  0  0  0  0
 13 31  1  0  0  0  0
 14 18  2  0  0  0  0
 14 19  1  0  0  0  0
 15 16  1  0  0  0  0
 15 20  2  0  0  0  0
 15 21  1  0  0  0  0
 17 25  2  0  0  0  0
 17 32  1  0  0  0  0
 18 20  1  0  0  0  0
 18 33  1  0  0  0  0
 19 21  2  0  0  0  0
 19 34  1  0  0  0  0
 20 35  1  0  0  0  0
 21 36  1  0  0  0  0
 22 27  2  0  0  0  0
 22 37  1  0  0  0  0
 23 26  2  0  0  0  0
 23 38  1  0  0  0  0
 24 25  1  0  0  0  0
 24 39  1  0  0  0  0
 25 40  1  0  0  0  0
 26 27  1  0  0  0  0
 26 41  1  0  0  0  0
 27 42  1  0  0  0  0
M  END
>  <$CLUSTER>
264

>  <INDEX>
166538

$$$$
Pyxis Discovery PYX 00000658
  MOE2020           3D

 48 50  0  0  1  0  0  0  0  0999 V2000
   -0.2350    0.1870   -0.6040 N   0  0  0  0  0  0  0  0  0  0  0  0
   -1.4860   -0.0300   -0.0790 C   0  0  0  0  0  0  0  0  0  0  0  0
    0.7130   -0.3090    0.2880 C   0  0  0  0  0  0  0  0  0  0  0  0
   -1.3200   -0.6550    1.1010 C   0  0  0  0  0  0  0  0  0  0  0  0
    0.0370   -0.8590    1.3810 C   0  0  0  0  0  0  0  0  0  0  0  0
   -2.8660    0.1530   -0.3070 C   0  0  0  0  0  0  0  0  0  0  0  0
   -0.0330    0.8320   -1.8850 C   0  0  0  0  0  0  0  0  0  0  0  0
    0.1910    2.3280   -1.7520 C   0  0  0  0  0  0  0  0  0  0  0  0
    0.3080    3.0590   -2.9170 N   0  0  0  0  0  0  0  0  0  0  0  0
   -2.5180   -0.9100    1.6890 O   0  0  0  0  0  0  0  0  0  0  0  0
    2.1500   -0.2450    0.0930 C   0  0  0  0  0  0  0  0  0  0  0  0
   -3.4370   -0.4080    0.8130 C   0  0  0  0  0  0  0  0  0  0  0  0
    0.2640    2.5040   -4.2680 C   0  0  0  0  0  0  0  0  0  0  0  0
    0.2580    2.8280   -0.6130 O   0  0  0  0  0  0  0  0  0  0  0  0
    2.7480    0.2730   -0.8410 O   0  0  0  0  0  0  0  0  0  0  0  0
    2.8010   -0.8530    1.1210 O   0  0  0  0  0  0  0  0  0  0  0  0
    0.4900    4.5030   -2.8440 C   0  0  0  0  0  0  0  0  0  0  0  0
   -0.8690    3.1720   -5.0750 C   0  0  3  0  0  0  0  0  0  0  0  0
   -4.8290   -0.5040    1.1160 C   0  0  0  0  0  0  0  0  0  0  0  0
   -0.6300    5.2100   -3.6210 C   0  0  0  0  0  0  0  0  0  0  0  0
   -0.7480    4.7000   -5.0550 C   0  0  0  0  0  0  0  0  0  0  0  0
    4.2340   -0.8830    1.0920 C   0  0  0  0  0  0  0  0  0  0  0  0
   -0.8760    2.6490   -6.5110 C   0  0  0  0  0  0  0  0  0  0  0  0
    4.7440   -1.6060    2.3230 C   0  0  0  0  0  0  0  0  0  0  0  0
    0.4660   -1.3360    2.2500 H   0  0  0  0  0  0  0  0  0  0  0  0
   -3.3540    0.6180   -1.1510 H   0  0  0  0  0  0  0  0  0  0  0  0
   -0.9140    0.6640   -2.5040 H   0  0  0  0  0  0  0  0  0  0  0  0
    0.8390    0.3890   -2.3660 H   0  0  0  0  0  0  0  0  0  0  0  0
    0.0830    1.4310   -4.2120 H   0  0  0  0  0  0  0  0  0  0  0  0
    1.2170    2.6860   -4.7650 H   0  0  0  0  0  0  0  0  0  0  0  0
    1.4540    4.7680   -3.2780 H   0  0  0  0  0  0  0  0  0  0  0  0
    0.4620    4.8190   -1.8010 H   0  0  0  0  0  0  0  0  0  0  0  0
   -1.8160    2.9120   -4.6020 H   0  0  0  0  0  0  0  0  0  0  0  0
   -5.4080   -0.0540    0.3100 H   0  0  0  0  0  0  0  0  0  0  0  0
   -5.0350    0.0220    2.0480 H   0  0  0  0  0  0  0  0  0  0  0  0
   -5.1060   -1.5530    1.2210 H   0  0  0  0  0  0  0  0  0  0  0  0
   -0.4200    6.2790   -3.6450 H   0  0  0  0  0  0  0  0  0  0  0  0
   -1.5760    5.0370   -3.1080 H   0  0  0  0  0  0  0  0  0  0  0  0
   -1.6330    5.1360   -5.5190 H   0  0  0  0  0  0  0  0  0  0  0  0
    0.1390    4.9970   -5.6150 H   0  0  0  0  0  0  0  0  0  0  0  0
    4.6200    0.1360    1.0820 H   0  0  0  0  0  0  0  0  0  0  0  0
    4.5690   -1.4070    0.1970 H   0  0  0  0  0  0  0  0  0  0  0  0
    0.0670    2.9030   -6.9950 H   0  0  0  0  0  0  0  0  0  0  0  0
   -1.7000    3.1050   -7.0600 H   0  0  0  0  0  0  0  0  0  0  0  0
   -1.0000    1.5660   -6.5030 H   0  0  0  0  0  0  0  0  0  0  0  0
    4.4080   -1.0820    3.2180 H   0  0  0  0  0  0  0  0  0  0  0  0
    5.8340   -1.6310    2.3040 H   0  0  0  0  0  0  0  0  0  0  0  0
    4.3570   -2.6250    2.3320 H   0  0  0  0  0  0  0  0  0  0  0  0
  1  2  1  0  0  0  0
  1  3  1  0  0  0  0
  1  7  1  0  0  0  0
  2  4  2  0  0  0  0
  2  6  1  0  0  0  0
  3  5  2  0  0  0  0
  3 11  1  0  0  0  0
  4  5  1  0  0  0  0
  4 10  1  0  0  0  0
  5 25  1  0  0  0  0
  6 12  2  0  0  0  0
  6 26  1  0  0  0  0
  7  8  1  0  0  0  0
  7 27  1  0  0  0  0
  7 28  1  0  0  0  0
  8  9  1  0  0  0  0
  8 14  2  0  0  0  0
  9 13  1  0  0  0  0
  9 17  1  0  0  0  0
 10 12  1  0  0  0  0
 11 15  2  0  0  0  0
 11 16  1  0  0  0  0
 12 19  1  0  0  0  0
 13 18  1  0  0  0  0
 13 29  1  0  0  0  0
 13 30  1  0  0  0  0
 16 22  1  0  0  0  0
 17 20  1  0  0  0  0
 17 31  1  0  0  0  0
 17 32  1  0  0  0  0
 18 21  1  0  0  0  0
 18 23  1  0  0  0  0
 18 33  1  0  0  0  0
 19 34  1  0  0  0  0
 19 35  1  0  0  0  0
 19 36  1  0  0  0  0
 20 21  1  0  0  0  0
 20 37  1  0  0  0  0
 20 38  1  0  0  0  0
 21 39  1  0  0  0  0
 21 40  1  0  0  0  0
 22 24  1  0  0  0  0
 22 41  1  0  0  0  0
 22 42  1  0  0  0  0
 23 43  1  0  0  0  0
 23 44  1  0  0  0  0
 23 45  1  0  0  0  0
 24 46  1  0  0  0  0
 24 47  1  0  0  0  0
 24 48  1  0  0  0  0
M  END
>  <$CLUSTER>
265

>  <INDEX>
612094

$$$$
Asinex ASN 08268002
  MOE2020           3D

 38 38  0  0  0  0  0  0  0  0999 V2000
   -0.4190   -1.3050    0.4390 N   0  0  0  0  0  0  0  0  0  0  0  0
   -1.3400   -2.2710    0.7110 C   0  0  0  0  0  0  0  0  0  0  0  0
   -1.9690   -2.3490    1.7700 O   0  0  0  0  0  0  0  0  0  0  0  0
   -4.4590   -4.5980   -4.1200 N   0  0  0  0  0  0  0  0  0  0  0  0
   -2.7690   -2.9720   -1.1810 N   0  0  0  0  0  0  0  0  0  0  0  0
   -1.5840   -3.2950   -0.3680 C   0  0  0  0  0  0  0  0  0  0  0  0
   -0.0980   -0.2550    1.4120 C   0  0  0  0  0  0  0  0  0  0  0  0
    0.3670   -1.1450   -0.7900 C   0  0  0  0  0  0  0  0  0  0  0  0
   -4.2180   -3.6110   -3.0370 C   0  0  0  0  0  0  0  0  0  0  0  0
   -2.9850   -3.9540   -2.2220 C   0  0  0  0  0  0  0  0  0  0  0  0
   -3.4280   -4.5380   -5.1690 C   0  0  0  0  0  0  0  0  0  0  0  0
   -5.7850   -4.3330   -4.7350 C   0  0  0  0  0  0  0  0  0  0  0  0
   -0.3630    1.1370    0.8430 C   0  0  0  0  0  0  0  0  0  0  0  0
    0.1190    0.2150   -1.4400 C   0  0  0  0  0  0  0  0  0  0  0  0
    0.3930    1.3540   -0.4640 C   0  0  0  0  0  0  0  0  0  0  0  0
   -2.6370   -2.0660   -1.6070 H   0  0  0  0  0  0  0  0  0  0  0  0
   -1.7330   -4.2690    0.0990 H   0  0  0  0  0  0  0  0  0  0  0  0
   -0.7110   -3.3340   -1.0190 H   0  0  0  0  0  0  0  0  0  0  0  0
    0.9550   -0.3320    1.6820 H   0  0  0  0  0  0  0  0  0  0  0  0
   -0.7120   -0.3970    2.3010 H   0  0  0  0  0  0  0  0  0  0  0  0
    0.0880   -1.9300   -1.4930 H   0  0  0  0  0  0  0  0  0  0  0  0
    1.4260   -1.2340   -0.5470 H   0  0  0  0  0  0  0  0  0  0  0  0
   -5.0840   -3.5950   -2.3760 H   0  0  0  0  0  0  0  0  0  0  0  0
   -4.0830   -2.6250   -3.4820 H   0  0  0  0  0  0  0  0  0  0  0  0
   -3.1190   -4.9350   -1.7660 H   0  0  0  0  0  0  0  0  0  0  0  0
   -2.1160   -3.9750   -2.8800 H   0  0  0  0  0  0  0  0  0  0  0  0
   -2.4500   -4.7310   -4.7290 H   0  0  0  0  0  0  0  0  0  0  0  0
   -3.4320   -3.5480   -5.6260 H   0  0  0  0  0  0  0  0  0  0  0  0
   -3.6390   -5.2900   -5.9290 H   0  0  0  0  0  0  0  0  0  0  0  0
   -6.5570   -4.3750   -3.9660 H   0  0  0  0  0  0  0  0  0  0  0  0
   -5.9890   -5.0860   -5.4970 H   0  0  0  0  0  0  0  0  0  0  0  0
   -5.7820   -3.3440   -5.1930 H   0  0  0  0  0  0  0  0  0  0  0  0
   -0.0410    1.8840    1.5680 H   0  0  0  0  0  0  0  0  0  0  0  0
   -1.4310    1.2480    0.6580 H   0  0  0  0  0  0  0  0  0  0  0  0
   -0.9200    0.2690   -1.7660 H   0  0  0  0  0  0  0  0  0  0  0  0
    0.7760    0.3210   -2.3030 H   0  0  0  0  0  0  0  0  0  0  0  0
    1.4620    1.3980   -0.2560 H   0  0  0  0  0  0  0  0  0  0  0  0
    0.0710    2.2940   -0.9120 H   0  0  0  0  0  0  0  0  0  0  0  0
  1  2  1  0  0  0  0
  1  7  1  0  0  0  0
  1  8  1  0  0  0  0
  2  3  2  0  0  0  0
  2  6  1  0  0  0  0
  4  9  1  0  0  0  0
  4 11  1  0  0  0  0
  4 12  1  0  0  0  0
  5  6  1  0  0  0  0
  5 10  1  0  0  0  0
  5 16  1  0  0  0  0
  6 17  1  0  0  0  0
  6 18  1  0  0  0  0
  7 13  1  0  0  0  0
  7 19  1  0  0  0  0
  7 20  1  0  0  0  0
  8 14  1  0  0  0  0
  8 21  1  0  0  0  0
  8 22  1  0  0  0  0
  9 10  1  0  0  0  0
  9 23  1  0  0  0  0
  9 24  1  0  0  0  0
 10 25  1  0  0  0  0
 10 26  1  0  0  0  0
 11 27  1  0  0  0  0
 11 28  1  0  0  0  0
 11 29  1  0  0  0  0
 12 30  1  0  0  0  0
 12 31  1  0  0  0  0
 12 32  1  0  0  0  0
 13 15  1  0  0  0  0
 13 33  1  0  0  0  0
 13 34  1  0  0  0  0
 14 15  1  0  0  0  0
 14 35  1  0  0  0  0
 14 36  1  0  0  0  0
 15 37  1  0  0  0  0
 15 38  1  0  0  0  0
M  END
>  <$CLUSTER>
266

>  <INDEX>
168720

$$$$
Bionet JS-2104
  MOE2020           3D

 44 46  0  0  0  0  0  0  0  0999 V2000
   -0.2100   -1.5620   -1.0230 N   0  0  0  0  0  0  0  0  0  0  0  0
    1.1500    2.3060    2.3890 C   0  0  0  0  0  0  0  0  0  0  0  0
    0.5880    1.9330    4.8290 C   0  0  0  0  0  0  0  0  0  0  0  0
    0.0510    0.8220    0.6960 N   0  3  0  0  0  0  0  0  0  0  0  0
    0.3530    1.9850    3.4500 N   0  0  0  0  0  0  0  0  0  0  0  0
   -0.0810   -2.3090   -2.1250 C   0  0  0  0  0  0  0  0  0  0  0  0
    1.8370    2.2260    5.3840 C   0  0  0  0  0  0  0  0  0  0  0  0
   -0.4630    1.5710    5.6850 C   0  0  0  0  0  0  0  0  0  0  0  0
   -0.2690    1.5050    7.0660 C   0  0  0  0  0  0  0  0  0  0  0  0
    2.0290    2.1600    6.7670 C   0  0  0  0  0  0  0  0  0  0  0  0
    0.9770    1.7990    7.6070 C   0  0  0  0  0  0  0  0  0  0  0  0
   -1.3610   -0.6890   -0.7360 C   0  0  0  0  0  0  0  0  0  0  0  0
    0.7800   -1.5030    0.0660 C   0  0  0  0  0  0  0  0  0  0  0  0
    0.4550    2.2220    1.0390 C   0  0  0  0  0  0  0  0  0  0  0  0
    2.3340    2.6050    2.5370 O   0  0  0  0  0  0  0  0  0  0  0  0
    1.0460   -3.1280   -2.3470 C   0  0  0  0  0  0  0  0  0  0  0  0
   -1.0630   -2.3270   -3.1370 C   0  0  0  0  0  0  0  0  0  0  0  0
   -0.9610    0.7750   -0.4350 C   0  0  0  0  0  0  0  0  0  0  0  0
    1.2470   -0.0640    0.3930 C   0  0  0  0  0  0  0  0  0  0  0  0
    0.1940   -3.9020   -4.4740 C   0  0  0  0  0  0  0  0  0  0  0  0
   -1.3310    1.1510    7.7920 F   0  0  0  0  0  0  0  0  0  0  0  0
    3.5530    2.5190    7.4410 Cl  0  0  0  0  0  0  0  0  0  0  0  0
   -0.9320   -3.1090   -4.2920 C   0  0  0  0  0  0  0  0  0  0  0  0
    1.1830   -3.9120   -3.4990 C   0  0  0  0  0  0  0  0  0  0  0  0
    0.2460   -4.6130   -5.5970 F   0  0  0  0  0  0  0  0  0  0  0  0
   -0.4000    0.4520    1.5210 H   0  0  0  0  0  0  0  0  0  0  0  0
   -0.5910    1.7360    3.1890 H   0  0  0  0  0  0  0  0  0  0  0  0
    2.6580    2.5050    4.7410 H   0  0  0  0  0  0  0  0  0  0  0  0
   -1.4330    1.3410    5.2710 H   0  0  0  0  0  0  0  0  0  0  0  0
    1.1300    1.7480    8.6750 H   0  0  0  0  0  0  0  0  0  0  0  0
   -1.8900   -1.0880    0.1300 H   0  0  0  0  0  0  0  0  0  0  0  0
   -2.0240   -0.6950   -1.6010 H   0  0  0  0  0  0  0  0  0  0  0  0
    1.6500   -2.0910   -0.2260 H   0  0  0  0  0  0  0  0  0  0  0  0
    0.3340   -1.9340    0.9620 H   0  0  0  0  0  0  0  0  0  0  0  0
    1.1350    2.5890    0.2710 H   0  0  0  0  0  0  0  0  0  0  0  0
   -0.4370    2.8480    1.0640 H   0  0  0  0  0  0  0  0  0  0  0  0
    1.8290   -3.1510   -1.6040 H   0  0  0  0  0  0  0  0  0  0  0  0
   -1.9460   -1.7170   -3.0180 H   0  0  0  0  0  0  0  0  0  0  0  0
   -0.5230    1.2190   -1.3290 H   0  0  0  0  0  0  0  0  0  0  0  0
   -1.8490    1.3390   -0.1470 H   0  0  0  0  0  0  0  0  0  0  0  0
    1.9060   -0.0880    1.2610 H   0  0  0  0  0  0  0  0  0  0  0  0
    1.7880    0.3420   -0.4620 H   0  0  0  0  0  0  0  0  0  0  0  0
   -1.7080   -3.0950   -5.0430 H   0  0  0  0  0  0  0  0  0  0  0  0
    2.0610   -4.5270   -3.6300 H   0  0  0  0  0  0  0  0  0  0  0  0
  1  6  1  0  0  0  0
  1 12  1  0  0  0  0
  1 13  1  0  0  0  0
  2  5  1  0  0  0  0
  2 14  1  0  0  0  0
  2 15  2  0  0  0  0
  3  5  1  0  0  0  0
  3  7  1  0  0  0  0
  3  8  2  0  0  0  0
  4 14  1  0  0  0  0
  4 18  1  0  0  0  0
  4 19  1  0  0  0  0
  4 26  1  0  0  0  0
  5 27  1  0  0  0  0
  6 16  1  0  0  0  0
  6 17  2  0  0  0  0
  7 10  2  0  0  0  0
  7 28  1  0  0  0  0
  8  9  1  0  0  0  0
  8 29  1  0  0  0  0
  9 11  2  0  0  0  0
  9 21  1  0  0  0  0
 10 11  1  0  0  0  0
 10 22  1  0  0  0  0
 11 30  1  0  0  0  0
 12 18  1  0  0  0  0
 12 31  1  0  0  0  0
 12 32  1  0  0  0  0
 13 19  1  0  0  0  0
 13 33  1  0  0  0  0
 13 34  1  0  0  0  0
 14 35  1  0  0  0  0
 14 36  1  0  0  0  0
 16 24  2  0  0  0  0
 16 37  1  0  0  0  0
 17 23  1  0  0  0  0
 17 38  1  0  0  0  0
 18 39  1  0  0  0  0
 18 40  1  0  0  0  0
 19 41  1  0  0  0  0
 19 42  1  0  0  0  0
 20 23  2  0  0  0  0
 20 24  1  0  0  0  0
 20 25  1  0  0  0  0
 23 43  1  0  0  0  0
 24 44  1  0  0  0  0
M  CHG  1   4   1
M  END
>  <$CLUSTER>
267

>  <INDEX>
198135

$$$$
Asinex ASN 08910136
  MOE2020           3D

 45 46  0  0  0  0  0  0  0  0999 V2000
    0.3600   -0.3610    0.3840 C   0  0  0  0  0  0  0  0  0  0  0  0
    1.8540   -0.1740    1.2230 S   0  0  0  0  0  0  0  0  0  0  0  0
   -0.0480   -1.6160    0.3390 N   0  0  0  0  0  0  0  0  0  0  0  0
    1.8510   -1.8640    1.4780 C   0  0  0  0  0  0  0  0  0  0  0  0
    0.8140   -2.4900    0.9720 N   0  0  0  0  0  0  0  0  0  0  0  0
   -0.2880    0.7710   -0.1640 N   0  0  0  0  0  0  0  0  0  0  0  0
   -1.5080    0.5070   -0.8280 C   0  0  0  0  0  0  0  0  0  0  0  0
    2.9440   -2.5590    2.2170 C   0  0  0  0  0  0  0  0  0  0  0  0
   -2.0390   -0.6010   -0.9460 O   0  0  0  0  0  0  0  0  0  0  0  0
    4.0490   -1.8900    2.7700 C   0  0  0  0  0  0  0  0  0  0  0  0
    0.2660    2.1390   -0.0660 C   0  0  0  0  0  0  0  0  0  0  0  0
    5.0470   -2.5920    3.4550 C   0  0  0  0  0  0  0  0  0  0  0  0
   -2.2220    1.6950   -1.4340 C   0  0  0  0  0  0  0  0  0  0  0  0
    2.8780   -3.9560    2.3770 C   0  0  0  0  0  0  0  0  0  0  0  0
    3.8760   -4.6540    3.0610 C   0  0  0  0  0  0  0  0  0  0  0  0
    4.9610   -3.9720    3.6000 C   0  0  0  0  0  0  0  0  0  0  0  0
    6.2120   -1.8520    4.0320 C   0  0  0  0  0  0  0  0  0  0  0  0
    1.2530    2.4410   -1.1870 C   0  0  0  0  0  0  0  0  0  0  0  0
   -3.4890    1.4250   -2.1230 C   0  0  0  0  0  0  0  0  0  0  0  0
   -4.1600    2.6360   -2.7080 C   0  0  0  0  0  0  0  0  0  0  0  0
    1.8220    3.8300   -1.0750 C   0  0  0  0  0  0  0  0  0  0  0  0
   -5.4660    2.3360   -3.4150 C   0  0  0  0  0  0  0  0  0  0  0  0
    4.1290   -0.8180    2.6650 H   0  0  0  0  0  0  0  0  0  0  0  0
    0.7780    2.2430    0.8900 H   0  0  0  0  0  0  0  0  0  0  0  0
   -0.5540    2.8550   -0.1180 H   0  0  0  0  0  0  0  0  0  0  0  0
   -1.5460    2.1530   -2.1550 H   0  0  0  0  0  0  0  0  0  0  0  0
   -2.4280    2.4010   -0.6300 H   0  0  0  0  0  0  0  0  0  0  0  0
    2.0400   -4.4980    1.9630 H   0  0  0  0  0  0  0  0  0  0  0  0
    3.8050   -5.7260    3.1710 H   0  0  0  0  0  0  0  0  0  0  0  0
    5.7330   -4.5110    4.1290 H   0  0  0  0  0  0  0  0  0  0  0  0
    6.1070   -0.7880    3.8200 H   0  0  0  0  0  0  0  0  0  0  0  0
    7.1350   -2.2220    3.5860 H   0  0  0  0  0  0  0  0  0  0  0  0
    6.2430   -2.0070    5.1110 H   0  0  0  0  0  0  0  0  0  0  0  0
    0.7390    2.3470   -2.1440 H   0  0  0  0  0  0  0  0  0  0  0  0
    2.0700    1.7210   -1.1410 H   0  0  0  0  0  0  0  0  0  0  0  0
   -4.1740    0.9710   -1.4070 H   0  0  0  0  0  0  0  0  0  0  0  0
   -3.2910    0.7230   -2.9330 H   0  0  0  0  0  0  0  0  0  0  0  0
   -3.4780    3.0920   -3.4260 H   0  0  0  0  0  0  0  0  0  0  0  0
   -4.3610    3.3400   -1.9000 H   0  0  0  0  0  0  0  0  0  0  0  0
    1.0130    4.5590   -1.1200 H   0  0  0  0  0  0  0  0  0  0  0  0
    2.5160    4.0060   -1.8970 H   0  0  0  0  0  0  0  0  0  0  0  0
    2.3500    3.9310   -0.1270 H   0  0  0  0  0  0  0  0  0  0  0  0
   -5.2860    1.6320   -4.2280 H   0  0  0  0  0  0  0  0  0  0  0  0
   -5.8810    3.2590   -3.8190 H   0  0  0  0  0  0  0  0  0  0  0  0
   -6.1710    1.9000   -2.7070 H   0  0  0  0  0  0  0  0  0  0  0  0
  1  2  1  0  0  0  0
  1  3  2  0  0  0  0
  1  6  1  0  0  0  0
  2  4  1  0  0  0  0
  3  5  1  0  0  0  0
  4  5  2  0  0  0  0
  4  8  1  0  0  0  0
  6  7  1  0  0  0  0
  6 11  1  0  0  0  0
  7  9  2  0  0  0  0
  7 13  1  0  0  0  0
  8 10  2  0  0  0  0
  8 14  1  0  0  0  0
 10 12  1  0  0  0  0
 10 23  1  0  0  0  0
 11 18  1  0  0  0  0
 11 24  1  0  0  0  0
 11 25  1  0  0  0  0
 12 16  2  0  0  0  0
 12 17  1  0  0  0  0
 13 19  1  0  0  0  0
 13 26  1  0  0  0  0
 13 27  1  0  0  0  0
 14 15  2  0  0  0  0
 14 28  1  0  0  0  0
 15 16  1  0  0  0  0
 15 29  1  0  0  0  0
 16 30  1  0  0  0  0
 17 31  1  0  0  0  0
 17 32  1  0  0  0  0
 17 33  1  0  0  0  0
 18 21  1  0  0  0  0
 18 34  1  0  0  0  0
 18 35  1  0  0  0  0
 19 20  1  0  0  0  0
 19 36  1  0  0  0  0
 19 37  1  0  0  0  0
 20 22  1  0  0  0  0
 20 38  1  0  0  0  0
 20 39  1  0  0  0  0
 21 40  1  0  0  0  0
 21 41  1  0  0  0  0
 21 42  1  0  0  0  0
 22 43  1  0  0  0  0
 22 44  1  0  0  0  0
 22 45  1  0  0  0  0
M  END
>  <$CLUSTER>
268

>  <INDEX>
169596

$$$$
Asinex ASN 08912970
  MOE2020           3D

 54 57  0  0  0  0  0  0  0  0999 V2000
   -0.1500    0.5660   -0.1270 S   0  0  0  0  0  0  0  0  0  0  0  0
   -3.2210   -5.5890    0.6510 N   0  0  0  0  0  0  0  0  0  0  0  0
   -3.0690   -4.7210   -0.4050 C   0  0  0  0  0  0  0  0  0  0  0  0
   -0.9920   -0.9120   -0.2140 N   0  0  0  0  0  0  0  0  0  0  0  0
   -4.4180   -6.4420    0.8510 C   0  0  0  0  0  0  0  0  0  0  0  0
    1.4670    0.0690    0.4890 C   0  0  0  0  0  0  0  0  0  0  0  0
   -0.0050    1.0650   -1.4840 O   0  0  0  0  0  0  0  0  0  0  0  0
   -0.8070    1.3840    0.8770 O   0  0  0  0  0  0  0  0  0  0  0  0
   -1.9700   -3.6890   -0.1710 C   0  0  0  0  0  0  0  0  0  0  0  0
   -3.7560   -4.7580   -1.4170 O   0  0  0  0  0  0  0  0  0  0  0  0
   -1.3430   -1.5630    1.0630 C   0  0  0  0  0  0  0  0  0  0  0  0
   -0.5590   -1.8750   -1.2450 C   0  0  0  0  0  0  0  0  0  0  0  0
   -4.4430   -7.4670    1.8300 C   0  0  0  0  0  0  0  0  0  0  0  0
   -2.3950   -2.6560    0.8750 C   0  0  0  0  0  0  0  0  0  0  0  0
   -1.5990   -2.9730   -1.4720 C   0  0  0  0  0  0  0  0  0  0  0  0
   -2.1820   -5.7900    1.7050 C   0  0  0  0  0  0  0  0  0  0  0  0
    2.3880    1.2670    0.6400 C   0  0  0  0  0  0  0  0  0  0  0  0
   -5.5860   -6.2280    0.0990 C   0  0  0  0  0  0  0  0  0  0  0  0
   -1.9820   -7.2340    2.1230 C   0  0  0  0  0  0  0  0  0  0  0  0
   -3.2670   -7.7560    2.7250 C   0  0  0  0  0  0  0  0  0  0  0  0
   -5.6080   -8.2330    2.0190 C   0  0  0  0  0  0  0  0  0  0  0  0
    3.1820    1.7010   -0.4350 C   0  0  0  0  0  0  0  0  0  0  0  0
    2.4690    1.9590    1.8610 C   0  0  0  0  0  0  0  0  0  0  0  0
   -6.7310   -7.0050    0.2890 C   0  0  0  0  0  0  0  0  0  0  0  0
   -6.7420   -8.0080    1.2490 C   0  0  0  0  0  0  0  0  0  0  0  0
    4.0300    2.8010   -0.2930 C   0  0  0  0  0  0  0  0  0  0  0  0
    3.3180    3.0580    1.9990 C   0  0  0  0  0  0  0  0  0  0  0  0
    4.0990    3.4790    0.9230 C   0  0  0  0  0  0  0  0  0  0  0  0
    1.9130   -0.6370   -0.2120 H   0  0  0  0  0  0  0  0  0  0  0  0
    1.3460   -0.4110    1.4600 H   0  0  0  0  0  0  0  0  0  0  0  0
   -1.0970   -4.2280    0.1980 H   0  0  0  0  0  0  0  0  0  0  0  0
   -1.7350   -0.8100    1.7460 H   0  0  0  0  0  0  0  0  0  0  0  0
   -0.4450   -2.0080    1.4900 H   0  0  0  0  0  0  0  0  0  0  0  0
    0.3760   -2.3360   -0.9260 H   0  0  0  0  0  0  0  0  0  0  0  0
   -0.4000   -1.3410   -2.1820 H   0  0  0  0  0  0  0  0  0  0  0  0
   -2.5490   -3.1630    1.8270 H   0  0  0  0  0  0  0  0  0  0  0  0
   -3.3290   -2.1940    0.5540 H   0  0  0  0  0  0  0  0  0  0  0  0
   -2.4980   -2.5240   -1.8950 H   0  0  0  0  0  0  0  0  0  0  0  0
   -1.1930   -3.7030   -2.1720 H   0  0  0  0  0  0  0  0  0  0  0  0
   -2.4750   -5.2180    2.5850 H   0  0  0  0  0  0  0  0  0  0  0  0
   -1.2330   -5.4110    1.3250 H   0  0  0  0  0  0  0  0  0  0  0  0
   -5.5980   -5.4440   -0.6440 H   0  0  0  0  0  0  0  0  0  0  0  0
   -1.1820   -7.2930    2.8610 H   0  0  0  0  0  0  0  0  0  0  0  0
   -1.7170   -7.8330    1.2520 H   0  0  0  0  0  0  0  0  0  0  0  0
   -3.1820   -8.8340    2.8640 H   0  0  0  0  0  0  0  0  0  0  0  0
   -3.4280   -7.2760    3.6900 H   0  0  0  0  0  0  0  0  0  0  0  0
   -5.6210   -9.0060    2.7730 H   0  0  0  0  0  0  0  0  0  0  0  0
    3.1360    1.1790   -1.3790 H   0  0  0  0  0  0  0  0  0  0  0  0
    1.8690    1.6370    2.6990 H   0  0  0  0  0  0  0  0  0  0  0  0
   -7.6100   -6.8250   -0.3120 H   0  0  0  0  0  0  0  0  0  0  0  0
   -7.6270   -8.6100    1.3960 H   0  0  0  0  0  0  0  0  0  0  0  0
    4.6340    3.1270   -1.1270 H   0  0  0  0  0  0  0  0  0  0  0  0
    3.3700    3.5840    2.9410 H   0  0  0  0  0  0  0  0  0  0  0  0
    4.7560    4.3290    1.0320 H   0  0  0  0  0  0  0  0  0  0  0  0
  1  4  1  0  0  0  0
  1  6  1  0  0  0  0
  1  7  2  0  0  0  0
  1  8  2  0  0  0  0
  2  3  1  0  0  0  0
  2  5  1  0  0  0  0
  2 16  1  0  0  0  0
  3  9  1  0  0  0  0
  3 10  2  0  0  0  0
  4 11  1  0  0  0  0
  4 12  1  0  0  0  0
  5 13  2  0  0  0  0
  5 18  1  0  0  0  0
  6 17  1  0  0  0  0
  6 29  1  0  0  0  0
  6 30  1  0  0  0  0
  9 14  1  0  0  0  0
  9 15  1  0  0  0  0
  9 31  1  0  0  0  0
 11 14  1  0  0  0  0
 11 32  1  0  0  0  0
 11 33  1  0  0  0  0
 12 15  1  0  0  0  0
 12 34  1  0  0  0  0
 12 35  1  0  0  0  0
 13 20  1  0  0  0  0
 13 21  1  0  0  0  0
 14 36  1  0  0  0  0
 14 37  1  0  0  0  0
 15 38  1  0  0  0  0
 15 39  1  0  0  0  0
 16 19  1  0  0  0  0
 16 40  1  0  0  0  0
 16 41  1  0  0  0  0
 17 22  2  0  0  0  0
 17 23  1  0  0  0  0
 18 24  2  0  0  0  0
 18 42  1  0  0  0  0
 19 20  1  0  0  0  0
 19 43  1  0  0  0  0
 19 44  1  0  0  0  0
 20 45  1  0  0  0  0
 20 46  1  0  0  0  0
 21 25  2  0  0  0  0
 21 47  1  0  0  0  0
 22 26  1  0  0  0  0
 22 48  1  0  0  0  0
 23 27  2  0  0  0  0
 23 49  1  0  0  0  0
 24 25  1  0  0  0  0
 24 50  1  0  0  0  0
 25 51  1  0  0  0  0
 26 28  2  0  0  0  0
 26 52  1  0  0  0  0
 27 28  1  0  0  0  0
 27 53  1  0  0  0  0
 28 54  1  0  0  0  0
M  END
>  <$CLUSTER>
269

>  <INDEX>
169805

$$$$
Asinex ASN 06745065
  MOE2020           3D

 42 44  0  0  0  0  0  0  0  0999 V2000
    0.2370   -0.0550    0.7180 C   0  0  0  0  0  0  0  0  0  0  0  0
   -0.5150    0.4580   -0.2960 N   0  0  0  0  0  0  0  0  0  0  0  0
    1.3690   -0.5340    0.0830 C   0  0  0  0  0  0  0  0  0  0  0  0
    0.1020    0.3120   -1.4850 N   0  0  0  0  0  0  0  0  0  0  0  0
    1.2640   -0.2970   -1.2630 N   0  0  0  0  0  0  0  0  0  0  0  0
   -0.0390   -0.0990    2.0290 N   0  0  0  0  0  0  0  0  0  0  0  0
    2.3660   -1.1390    0.8660 C   0  0  0  0  0  0  0  0  0  0  0  0
    2.1240   -1.2030    2.2120 N   0  0  0  0  0  0  0  0  0  0  0  0
    0.9670   -0.6930    2.7000 C   0  0  0  0  0  0  0  0  0  0  0  0
   -1.8100    1.0940   -0.2150 C   0  0  0  0  0  0  0  0  0  0  0  0
    3.5220   -1.6370    0.2930 N   0  0  0  0  0  0  0  0  0  0  0  0
   -2.9470    0.1080   -0.4150 C   0  0  0  0  0  0  0  0  0  0  0  0
    0.7660   -0.7990    4.2220 C   0  0  0  0  0  0  0  0  0  0  0  0
    4.5450   -2.2600    1.1050 C   0  0  0  0  0  0  0  0  0  0  0  0
   -3.6320   -0.4260    0.6860 C   0  0  0  0  0  0  0  0  0  0  0  0
   -3.3110   -0.3020   -1.7070 C   0  0  0  0  0  0  0  0  0  0  0  0
    5.6990   -2.7160    0.2270 C   0  0  0  0  0  0  0  0  0  0  0  0
    6.7960   -3.3910    1.0540 C   0  0  0  0  0  0  0  0  0  0  0  0
    7.9520   -3.8480    0.1770 C   0  0  0  0  0  0  0  0  0  0  0  0
   -4.6770   -1.3360    0.4970 C   0  0  0  0  0  0  0  0  0  0  0  0
   -4.3560   -1.2110   -1.8950 C   0  0  0  0  0  0  0  0  0  0  0  0
   -5.0400   -1.7250   -0.7930 C   0  0  0  0  0  0  0  0  0  0  0  0
   -1.8720    1.8630   -0.9850 H   0  0  0  0  0  0  0  0  0  0  0  0
   -1.9140    1.5550    0.7670 H   0  0  0  0  0  0  0  0  0  0  0  0
    3.6540   -1.5650   -0.7060 H   0  0  0  0  0  0  0  0  0  0  0  0
   -0.1930   -0.3580    4.4930 H   0  0  0  0  0  0  0  0  0  0  0  0
    1.5680   -0.2660    4.7320 H   0  0  0  0  0  0  0  0  0  0  0  0
    0.7810   -1.8480    4.5180 H   0  0  0  0  0  0  0  0  0  0  0  0
    4.1210   -3.1220    1.6210 H   0  0  0  0  0  0  0  0  0  0  0  0
    4.9110   -1.5410    1.8380 H   0  0  0  0  0  0  0  0  0  0  0  0
   -3.3510   -0.1330    1.6870 H   0  0  0  0  0  0  0  0  0  0  0  0
   -2.7800    0.0880   -2.5630 H   0  0  0  0  0  0  0  0  0  0  0  0
    6.1210   -1.8500   -0.2820 H   0  0  0  0  0  0  0  0  0  0  0  0
    5.3240   -3.4250   -0.5110 H   0  0  0  0  0  0  0  0  0  0  0  0
    6.3740   -4.2570    1.5630 H   0  0  0  0  0  0  0  0  0  0  0  0
    7.1700   -2.6820    1.7920 H   0  0  0  0  0  0  0  0  0  0  0  0
    7.5870   -4.5580   -0.5650 H   0  0  0  0  0  0  0  0  0  0  0  0
    8.7100   -4.3270    0.7960 H   0  0  0  0  0  0  0  0  0  0  0  0
    8.3870   -2.9860   -0.3280 H   0  0  0  0  0  0  0  0  0  0  0  0
   -5.2030   -1.7380    1.3500 H   0  0  0  0  0  0  0  0  0  0  0  0
   -4.6340   -1.5150   -2.8930 H   0  0  0  0  0  0  0  0  0  0  0  0
   -5.8500   -2.4240   -0.9380 H   0  0  0  0  0  0  0  0  0  0  0  0
  1  2  1  0  0  0  0
  1  3  2  0  0  0  0
  1  6  1  0  0  0  0
  2  4  1  0  0  0  0
  2 10  1  0  0  0  0
  3  5  1  0  0  0  0
  3  7  1  0  0  0  0
  4  5  2  0  0  0  0
  6  9  2  0  0  0  0
  7  8  2  0  0  0  0
  7 11  1  0  0  0  0
  8  9  1  0  0  0  0
  9 13  1  0  0  0  0
 10 12  1  0  0  0  0
 10 23  1  0  0  0  0
 10 24  1  0  0  0  0
 11 14  1  0  0  0  0
 11 25  1  0  0  0  0
 12 15  2  0  0  0  0
 12 16  1  0  0  0  0
 13 26  1  0  0  0  0
 13 27  1  0  0  0  0
 13 28  1  0  0  0  0
 14 17  1  0  0  0  0
 14 29  1  0  0  0  0
 14 30  1  0  0  0  0
 15 20  1  0  0  0  0
 15 31  1  0  0  0  0
 16 21  2  0  0  0  0
 16 32  1  0  0  0  0
 17 18  1  0  0  0  0
 17 33  1  0  0  0  0
 17 34  1  0  0  0  0
 18 19  1  0  0  0  0
 18 35  1  0  0  0  0
 18 36  1  0  0  0  0
 19 37  1  0  0  0  0
 19 38  1  0  0  0  0
 19 39  1  0  0  0  0
 20 22  2  0  0  0  0
 20 40  1  0  0  0  0
 21 22  1  0  0  0  0
 21 41  1  0  0  0  0
 22 42  1  0  0  0  0
M  END
>  <$CLUSTER>
270

>  <INDEX>
163325

$$$$
Tripos 1547-00087
  MOE2020           3D

 55 57  0  0  1  0  0  0  0  0999 V2000
   -4.2260   -0.1750   -1.5400 N   0  0  0  0  0  0  0  0  0  0  0  0
   -6.5680   -2.0170   -1.6480 N   0  0  0  0  0  0  0  0  0  0  0  0
    0.1830   -0.6060   -0.3830 C   0  0  0  0  0  0  0  0  0  0  0  0
    0.2950    0.3720    0.5680 C   0  0  0  0  0  0  0  0  0  0  0  0
    1.2110   -1.5040   -0.3330 O   0  0  0  0  0  0  0  0  0  0  0  0
    1.4080    0.2220    1.3450 O   0  0  0  0  0  0  0  0  0  0  0  0
    1.9840   -0.9710    0.7670 C   0  0  0  0  0  0  0  0  0  0  0  0
   -0.8740   -0.6400   -1.2760 C   0  0  0  0  0  0  0  0  0  0  0  0
   -1.8390    0.3700   -1.1770 C   0  0  0  0  0  0  0  0  0  0  0  0
   -3.0310    0.3890   -2.1440 C   0  0  0  0  0  0  0  0  0  0  0  0
   -7.7970   -2.5640   -1.0560 C   0  0  0  0  0  0  0  0  0  0  0  0
  -10.1870   -6.5730    0.3480 C   0  0  0  0  0  0  0  0  0  0  0  0
   -0.6430    1.3820    0.6900 C   0  0  0  0  0  0  0  0  0  0  0  0
   -9.0080   -6.0160   -0.1940 O   0  0  0  0  0  0  0  0  0  0  0  0
   -6.7060   -0.5590   -1.8890 C   0  0  0  0  0  0  0  0  0  0  0  0
   -4.1220   -1.6300   -1.3030 C   0  0  0  0  0  0  0  0  0  0  0  0
   -5.4050   -2.2570   -0.7570 C   0  0  0  0  0  0  0  0  0  0  0  0
   -5.3940    0.0670   -2.4380 C   0  0  0  0  0  0  0  0  0  0  0  0
   -7.8270   -4.0820   -0.9830 C   0  0  3  0  0  0  0  0  0  0  0  0
   -1.7250    1.3750   -0.2000 C   0  0  0  0  0  0  0  0  0  0  0  0
   -9.1110   -4.6150   -0.4060 C   0  0  0  0  0  0  0  0  0  0  0  0
   -7.6440   -4.6300   -2.3070 O   0  0  0  0  0  0  0  0  0  0  0  0
   -9.8400   -8.1020    0.4900 C   0  0  0  0  0  0  0  0  0  0  0  0
  -11.4020   -6.4770   -0.5810 C   0  0  0  0  0  0  0  0  0  0  0  0
  -10.5270   -6.0610    1.7510 C   0  0  0  0  0  0  0  0  0  0  0  0
    2.9830   -0.7320    0.4040 H   0  0  0  0  0  0  0  0  0  0  0  0
    2.0520   -1.7330    1.5430 H   0  0  0  0  0  0  0  0  0  0  0  0
   -0.9520   -1.4170   -2.0220 H   0  0  0  0  0  0  0  0  0  0  0  0
   -3.2350    1.4200   -2.4320 H   0  0  0  0  0  0  0  0  0  0  0  0
   -2.7760   -0.1920   -3.0300 H   0  0  0  0  0  0  0  0  0  0  0  0
   -8.6440   -2.2330   -1.6580 H   0  0  0  0  0  0  0  0  0  0  0  0
   -7.8940   -2.1700   -0.0440 H   0  0  0  0  0  0  0  0  0  0  0  0
   -0.5450    2.1480    1.4440 H   0  0  0  0  0  0  0  0  0  0  0  0
   -6.9630   -0.0700   -0.9490 H   0  0  0  0  0  0  0  0  0  0  0  0
   -7.5040   -0.3960   -2.6140 H   0  0  0  0  0  0  0  0  0  0  0  0
   -3.3210   -1.8050   -0.5850 H   0  0  0  0  0  0  0  0  0  0  0  0
   -3.8760   -2.1160   -2.2470 H   0  0  0  0  0  0  0  0  0  0  0  0
   -5.2550   -3.3320   -0.6560 H   0  0  0  0  0  0  0  0  0  0  0  0
   -5.6170   -1.8270    0.2220 H   0  0  0  0  0  0  0  0  0  0  0  0
   -5.1810   -0.3680   -3.4140 H   0  0  0  0  0  0  0  0  0  0  0  0
   -5.5370    1.1420   -2.5430 H   0  0  0  0  0  0  0  0  0  0  0  0
   -7.0180   -4.3850   -0.3180 H   0  0  0  0  0  0  0  0  0  0  0  0
   -2.4770    2.1470   -0.1350 H   0  0  0  0  0  0  0  0  0  0  0  0
   -9.3110   -4.1210    0.5450 H   0  0  0  0  0  0  0  0  0  0  0  0
   -9.9280   -4.4150   -1.0990 H   0  0  0  0  0  0  0  0  0  0  0  0
   -8.3790   -4.3330   -2.8480 H   0  0  0  0  0  0  0  0  0  0  0  0
   -9.5900   -8.5100   -0.4890 H   0  0  0  0  0  0  0  0  0  0  0  0
  -10.7000   -8.6340    0.8970 H   0  0  0  0  0  0  0  0  0  0  0  0
   -8.9890   -8.2210    1.1610 H   0  0  0  0  0  0  0  0  0  0  0  0
  -11.1330   -6.8470   -1.5700 H   0  0  0  0  0  0  0  0  0  0  0  0
  -11.7210   -5.4370   -0.6560 H   0  0  0  0  0  0  0  0  0  0  0  0
  -12.2160   -7.0780   -0.1770 H   0  0  0  0  0  0  0  0  0  0  0  0
   -9.6470   -6.1400    2.3900 H   0  0  0  0  0  0  0  0  0  0  0  0
  -11.3360   -6.6600    2.1700 H   0  0  0  0  0  0  0  0  0  0  0  0
  -10.8400   -5.0190    1.6910 H   0  0  0  0  0  0  0  0  0  0  0  0
  1 10  1  0  0  0  0
  1 16  1  0  0  0  0
  1 18  1  0  0  0  0
  2 11  1  0  0  0  0
  2 15  1  0  0  0  0
  2 17  1  0  0  0  0
  3  4  1  0  0  0  0
  3  5  1  0  0  0  0
  3  8  2  0  0  0  0
  4  6  1  0  0  0  0
  4 13  2  0  0  0  0
  5  7  1  0  0  0  0
  6  7  1  0  0  0  0
  7 26  1  0  0  0  0
  7 27  1  0  0  0  0
  8  9  1  0  0  0  0
  8 28  1  0  0  0  0
  9 10  1  0  0  0  0
  9 20  2  0  0  0  0
 10 29  1  0  0  0  0
 10 30  1  0  0  0  0
 11 19  1  0  0  0  0
 11 31  1  0  0  0  0
 11 32  1  0  0  0  0
 12 14  1  0  0  0  0
 12 23  1  0  0  0  0
 12 24  1  0  0  0  0
 12 25  1  0  0  0  0
 13 20  1  0  0  0  0
 13 33  1  0  0  0  0
 14 21  1  0  0  0  0
 15 18  1  0  0  0  0
 15 34  1  0  0  0  0
 15 35  1  0  0  0  0
 16 17  1  0  0  0  0
 16 36  1  0  0  0  0
 16 37  1  0  0  0  0
 17 38  1  0  0  0  0
 17 39  1  0  0  0  0
 18 40  1  0  0  0  0
 18 41  1  0  0  0  0
 19 21  1  0  0  0  0
 19 22  1  0  0  0  0
 19 42  1  0  0  0  0
 20 43  1  0  0  0  0
 21 44  1  0  0  0  0
 21 45  1  0  0  0  0
 22 46  1  0  0  0  0
 23 47  1  0  0  0  0
 23 48  1  0  0  0  0
 23 49  1  0  0  0  0
 24 50  1  0  0  0  0
 24 51  1  0  0  0  0
 24 52  1  0  0  0  0
 25 53  1  0  0  0  0
 25 54  1  0  0  0  0
 25 55  1  0  0  0  0
M  END
>  <$CLUSTER>
271

>  <INDEX>
464157

$$$$
Asinex ASN 09067470
  MOE2020           3D

 43 46  0  0  1  0  0  0  0  0999 V2000
   -0.2670    0.0950    0.8400 N   0  0  0  0  0  0  0  0  0  0  0  0
    1.0820    0.3700    0.9250 C   0  0  0  0  0  0  0  0  0  0  0  0
   -1.8960   -2.1670    0.1020 C   0  0  0  0  0  0  0  0  0  0  0  0
   -1.1890    0.2930   -0.2720 C   0  0  3  0  0  0  0  0  0  0  0  0
   -1.0380   -0.5230    1.9030 C   0  0  3  0  0  0  0  0  0  0  0  0
   -1.2450   -1.9990    1.5020 C   0  0  0  0  0  0  0  0  0  0  0  0
   -1.4170   -1.0930   -0.9130 C   0  0  0  0  0  0  0  0  0  0  0  0
   -1.6340   -3.5720   -0.4490 C   0  0  0  0  0  0  0  0  0  0  0  0
    1.7080    0.9840   -0.2490 C   0  0  0  0  0  0  0  0  0  0  0  0
    1.8000    0.1400    1.8930 O   0  0  0  0  0  0  0  0  0  0  0  0
   -2.4360    0.8320    0.4400 C   0  0  0  0  0  0  0  0  0  0  0  0
   -2.3360    0.2900    1.8780 C   0  0  0  0  0  0  0  0  0  0  0  0
    0.0500   -5.2180   -1.1810 N   0  0  0  0  0  0  0  0  0  0  0  0
    2.3370    0.1690   -1.1890 C   0  0  0  0  0  0  0  0  0  0  0  0
    1.6900    2.3720   -0.3870 C   0  0  0  0  0  0  0  0  0  0  0  0
   -3.3170   -2.0410    0.2310 O   0  0  0  0  0  0  0  0  0  0  0  0
    2.9210    2.1440   -2.4550 C   0  0  0  0  0  0  0  0  0  0  0  0
    2.9420    0.7570   -2.2990 C   0  0  0  0  0  0  0  0  0  0  0  0
    2.2970    2.9500   -1.5000 C   0  0  0  0  0  0  0  0  0  0  0  0
   -0.2980   -4.0000   -0.6990 C   0  0  0  0  0  0  0  0  0  0  0  0
    3.5210    2.6220   -3.5470 F   0  0  0  0  0  0  0  0  0  0  0  0
   -2.6140   -4.5100   -0.7350 C   0  0  0  0  0  0  0  0  0  0  0  0
   -0.9600   -6.0740   -1.4340 C   0  0  0  0  0  0  0  0  0  0  0  0
   -2.2940   -5.7730   -1.2310 C   0  0  0  0  0  0  0  0  0  0  0  0
   -0.8670    0.9630   -1.0690 H   0  0  0  0  0  0  0  0  0  0  0  0
   -0.5940   -0.5230    2.8980 H   0  0  0  0  0  0  0  0  0  0  0  0
   -0.2750   -2.4950    1.4950 H   0  0  0  0  0  0  0  0  0  0  0  0
   -1.8900   -2.4720    2.2430 H   0  0  0  0  0  0  0  0  0  0  0  0
   -2.1710   -0.9940   -1.6940 H   0  0  0  0  0  0  0  0  0  0  0  0
   -0.4790   -1.4280   -1.3550 H   0  0  0  0  0  0  0  0  0  0  0  0
   -3.3420    0.4680   -0.0450 H   0  0  0  0  0  0  0  0  0  0  0  0
   -2.4370    1.9220    0.4400 H   0  0  0  0  0  0  0  0  0  0  0  0
   -2.2890    1.1100    2.5950 H   0  0  0  0  0  0  0  0  0  0  0  0
   -3.1910   -0.3450    2.1090 H   0  0  0  0  0  0  0  0  0  0  0  0
    2.3550   -0.9030   -1.0590 H   0  0  0  0  0  0  0  0  0  0  0  0
    1.2120    2.9900    0.3590 H   0  0  0  0  0  0  0  0  0  0  0  0
   -3.5010   -1.1640    0.5760 H   0  0  0  0  0  0  0  0  0  0  0  0
    3.4280    0.1380   -3.0390 H   0  0  0  0  0  0  0  0  0  0  0  0
    2.2850    4.0230   -1.6240 H   0  0  0  0  0  0  0  0  0  0  0  0
    0.4980   -3.3010   -0.4880 H   0  0  0  0  0  0  0  0  0  0  0  0
   -3.6510   -4.2560   -0.5700 H   0  0  0  0  0  0  0  0  0  0  0  0
   -0.7130   -7.0530   -1.8180 H   0  0  0  0  0  0  0  0  0  0  0  0
   -3.0660   -6.4960   -1.4500 H   0  0  0  0  0  0  0  0  0  0  0  0
  1  2  1  0  0  0  0
  1  4  1  0  0  0  0
  1  5  1  0  0  0  0
  2  9  1  0  0  0  0
  2 10  2  0  0  0  0
  3  6  1  0  0  0  0
  3  7  1  0  0  0  0
  3  8  1  0  0  0  0
  3 16  1  0  0  0  0
  4  7  1  0  0  0  0
  4 11  1  0  0  0  0
  4 25  1  0  0  0  0
  5  6  1  0  0  0  0
  5 12  1  0  0  0  0
  5 26  1  0  0  0  0
  6 27  1  0  0  0  0
  6 28  1  0  0  0  0
  7 29  1  0  0  0  0
  7 30  1  0  0  0  0
  8 20  2  0  0  0  0
  8 22  1  0  0  0  0
  9 14  2  0  0  0  0
  9 15  1  0  0  0  0
 11 12  1  0  0  0  0
 11 31  1  0  0  0  0
 11 32  1  0  0  0  0
 12 33  1  0  0  0  0
 12 34  1  0  0  0  0
 13 20  1  0  0  0  0
 13 23  2  0  0  0  0
 14 18  1  0  0  0  0
 14 35  1  0  0  0  0
 15 19  2  0  0  0  0
 15 36  1  0  0  0  0
 16 37  1  0  0  0  0
 17 18  2  0  0  0  0
 17 19  1  0  0  0  0
 17 21  1  0  0  0  0
 18 38  1  0  0  0  0
 19 39  1  0  0  0  0
 20 40  1  0  0  0  0
 22 24  2  0  0  0  0
 22 41  1  0  0  0  0
 23 24  1  0  0  0  0
 23 42  1  0  0  0  0
 24 43  1  0  0  0  0
M  END
>  <$CLUSTER>
272

>  <INDEX>
170070

$$$$
Asinex ASN 09646853
  MOE2020           3D

 30 32  0  0  0  0  0  0  0  0999 V2000
   -0.6120   -0.5210   -0.1990 C   0  0  0  0  0  0  0  0  0  0  0  0
    0.5320    0.2150    0.0240 C   0  0  0  0  0  0  0  0  0  0  0  0
   -1.7450   -0.0710    0.6110 C   0  0  0  0  0  0  0  0  0  0  0  0
   -1.4430    0.9630    1.4050 N   0  0  0  0  0  0  0  0  0  0  0  0
   -3.0630   -1.7550   -0.3760 N   0  0  0  0  0  0  0  0  0  0  0  0
    0.1380    1.3960    1.2020 S   0  0  0  0  0  0  0  0  0  0  0  0
   -2.9870   -0.7210    0.5000 C   0  0  0  0  0  0  0  0  0  0  0  0
   -0.6950   -1.5560   -1.0740 N   0  0  0  0  0  0  0  0  0  0  0  0
    1.8750    0.1570   -0.5210 C   0  0  0  0  0  0  0  0  0  0  0  0
   -1.9450   -2.0940   -1.0840 C   0  0  0  0  0  0  0  0  0  0  0  0
    2.0900   -0.8290   -1.4630 N   0  0  0  0  0  0  0  0  0  0  0  0
    2.7850    0.9170   -0.1900 O   0  0  0  0  0  0  0  0  0  0  0  0
   -3.9920   -0.3840    1.2140 O   0  0  0  0  0  0  0  0  0  0  0  0
    3.2100   -1.2120   -2.2090 C   0  0  0  0  0  0  0  0  0  0  0  0
    5.4050   -2.0510   -3.7490 C   0  0  0  0  0  0  0  0  0  0  0  0
    6.7280   -2.5660   -4.6850 Cl  0  0  0  0  0  0  0  0  0  0  0  0
    4.4430   -0.5640   -2.0950 C   0  0  0  0  0  0  0  0  0  0  0  0
    3.0900   -2.2860   -3.1040 C   0  0  0  0  0  0  0  0  0  0  0  0
    5.5340   -0.9840   -2.8640 C   0  0  0  0  0  0  0  0  0  0  0  0
    4.1810   -2.7020   -3.8700 C   0  0  0  0  0  0  0  0  0  0  0  0
   -2.1160   -3.2810   -2.0640 C   0  0  0  0  0  0  0  0  0  0  0  0
    1.2710   -1.3890   -1.6530 H   0  0  0  0  0  0  0  0  0  0  0  0
   -4.7820   -0.9130    1.0780 H   0  0  0  0  0  0  0  0  0  0  0  0
    4.5540    0.2640   -1.4110 H   0  0  0  0  0  0  0  0  0  0  0  0
    2.1430   -2.7970   -3.2020 H   0  0  0  0  0  0  0  0  0  0  0  0
    6.4830   -0.4770   -2.7700 H   0  0  0  0  0  0  0  0  0  0  0  0
    4.0750   -3.5290   -4.5560 H   0  0  0  0  0  0  0  0  0  0  0  0
   -3.1400   -3.6520   -2.0110 H   0  0  0  0  0  0  0  0  0  0  0  0
   -1.4260   -4.0790   -1.7920 H   0  0  0  0  0  0  0  0  0  0  0  0
   -1.9030   -2.9470   -3.0800 H   0  0  0  0  0  0  0  0  0  0  0  0
  1  2  2  0  0  0  0
  1  3  1  0  0  0  0
  1  8  1  0  0  0  0
  2  6  1  0  0  0  0
  2  9  1  0  0  0  0
  3  4  2  0  0  0  0
  3  7  1  0  0  0  0
  4  6  1  0  0  0  0
  5  7  2  0  0  0  0
  5 10  1  0  0  0  0
  7 13  1  0  0  0  0
  8 10  2  0  0  0  0
  9 11  1  0  0  0  0
  9 12  2  0  0  0  0
 10 21  1  0  0  0  0
 11 14  1  0  0  0  0
 11 22  1  0  0  0  0
 13 23  1  0  0  0  0
 14 17  2  0  0  0  0
 14 18  1  0  0  0  0
 15 16  1  0  0  0  0
 15 19  2  0  0  0  0
 15 20  1  0  0  0  0
 17 19  1  0  0  0  0
 17 24  1  0  0  0  0
 18 20  2  0  0  0  0
 18 25  1  0  0  0  0
 19 26  1  0  0  0  0
 20 27  1  0  0  0  0
 21 28  1  0  0  0  0
 21 29  1  0  0  0  0
 21 30  1  0  0  0  0
M  END
>  <$CLUSTER>
273

>  <INDEX>
170510

$$$$
Pyxis Discovery PYX 00003417
  MOE2020           3D

 54 58  0  0  0  0  0  0  0  0999 V2000
   -0.4240    1.7770    0.1550 C   0  0  0  0  0  0  0  0  0  0  0  0
    0.8880    1.5850   -0.1950 C   0  0  0  0  0  0  0  0  0  0  0  0
   -0.9910    0.5240    0.2770 N   0  0  0  0  0  0  0  0  0  0  0  0
   -0.9830    3.0160    0.3790 N   0  0  0  0  0  0  0  0  0  0  0  0
   -0.0320   -0.4410    0.1560 N   0  0  0  0  0  0  0  0  0  0  0  0
    1.0980    0.1930   -0.1990 C   0  0  0  0  0  0  0  0  0  0  0  0
    1.7120    2.7200   -0.4030 C   0  0  0  0  0  0  0  0  0  0  0  0
    1.2180    3.9560   -0.2400 C   0  0  0  0  0  0  0  0  0  0  0  0
   -0.2040    4.1560    0.1810 C   0  0  0  0  0  0  0  0  0  0  0  0
    2.3130   -0.5610   -0.4890 C   0  0  0  0  0  0  0  0  0  0  0  0
   -2.3430    0.1360    0.4890 C   0  0  0  0  0  0  0  0  0  0  0  0
   -0.6330    5.2950    0.3450 O   0  0  0  0  0  0  0  0  0  0  0  0
    2.6860   -1.6410    0.3240 C   0  0  0  0  0  0  0  0  0  0  0  0
    3.1130   -0.2320   -1.5920 C   0  0  0  0  0  0  0  0  0  0  0  0
    1.6910    6.0240   -1.5920 N   0  3  0  0  0  0  0  0  0  0  0  0
    2.0890    5.1960   -0.4230 C   0  0  0  0  0  0  0  0  0  0  0  0
    4.6370   -2.0310   -1.0500 C   0  0  0  0  0  0  0  0  0  0  0  0
    4.2710   -0.9640   -1.8680 C   0  0  0  0  0  0  0  0  0  0  0  0
    3.8450   -2.3700    0.0450 C   0  0  0  0  0  0  0  0  0  0  0  0
    5.7560   -2.6760   -1.3790 F   0  0  0  0  0  0  0  0  0  0  0  0
    1.9450    7.9450   -3.0450 C   0  0  0  0  0  0  0  0  0  0  0  0
    2.4840    7.2280   -1.8250 C   0  0  0  0  0  0  0  0  0  0  0  0
   -3.4100    0.9970    0.2070 C   0  0  0  0  0  0  0  0  0  0  0  0
   -2.6170   -1.1610    0.9530 C   0  0  0  0  0  0  0  0  0  0  0  0
    2.4610    7.6770   -4.3270 C   0  0  0  0  0  0  0  0  0  0  0  0
    0.9540    8.9370   -2.9210 C   0  0  0  0  0  0  0  0  0  0  0  0
   -4.7270    0.5770    0.4200 C   0  0  0  0  0  0  0  0  0  0  0  0
   -3.9350   -1.5720    1.1660 C   0  0  0  0  0  0  0  0  0  0  0  0
    1.9730    8.3490   -5.4500 C   0  0  0  0  0  0  0  0  0  0  0  0
    0.4680    9.6070   -4.0450 C   0  0  0  0  0  0  0  0  0  0  0  0
   -4.9900   -0.7020    0.9040 C   0  0  0  0  0  0  0  0  0  0  0  0
    0.9780    9.3140   -5.3080 C   0  0  0  0  0  0  0  0  0  0  0  0
   -1.9430    3.0980    0.6820 H   0  0  0  0  0  0  0  0  0  0  0  0
    2.7440    2.5880   -0.6940 H   0  0  0  0  0  0  0  0  0  0  0  0
    2.0730   -1.9110    1.1710 H   0  0  0  0  0  0  0  0  0  0  0  0
    2.8330    0.5920   -2.2320 H   0  0  0  0  0  0  0  0  0  0  0  0
    0.7310    6.3080   -1.4570 H   0  0  0  0  0  0  0  0  0  0  0  0
    1.7580    5.4460   -2.4170 H   0  0  0  0  0  0  0  0  0  0  0  0
    3.1220    4.8770   -0.5600 H   0  0  0  0  0  0  0  0  0  0  0  0
    2.0140    5.8080    0.4760 H   0  0  0  0  0  0  0  0  0  0  0  0
    4.8840   -0.7020   -2.7180 H   0  0  0  0  0  0  0  0  0  0  0  0
    4.1270   -3.1970    0.6790 H   0  0  0  0  0  0  0  0  0  0  0  0
    3.5250    6.9530   -1.9930 H   0  0  0  0  0  0  0  0  0  0  0  0
    2.4170    7.8830   -0.9570 H   0  0  0  0  0  0  0  0  0  0  0  0
   -3.2160    1.9880   -0.1760 H   0  0  0  0  0  0  0  0  0  0  0  0
   -1.8040   -1.8450    1.1460 H   0  0  0  0  0  0  0  0  0  0  0  0
    3.2440    6.9420   -4.4440 H   0  0  0  0  0  0  0  0  0  0  0  0
    0.5650    9.1830   -1.9440 H   0  0  0  0  0  0  0  0  0  0  0  0
   -5.5450    1.2490    0.2080 H   0  0  0  0  0  0  0  0  0  0  0  0
   -4.1360   -2.5670    1.5350 H   0  0  0  0  0  0  0  0  0  0  0  0
    2.3670    8.1200   -6.4290 H   0  0  0  0  0  0  0  0  0  0  0  0
   -0.3050   10.3540   -3.9350 H   0  0  0  0  0  0  0  0  0  0  0  0
   -6.0080   -1.0180    1.0750 H   0  0  0  0  0  0  0  0  0  0  0  0
    0.6020    9.8350   -6.1760 H   0  0  0  0  0  0  0  0  0  0  0  0
  1  2  2  0  0  0  0
  1  3  1  0  0  0  0
  1  4  1  0  0  0  0
  2  6  1  0  0  0  0
  2  7  1  0  0  0  0
  3  5  1  0  0  0  0
  3 11  1  0  0  0  0
  4  9  1  0  0  0  0
  4 33  1  0  0  0  0
  5  6  2  0  0  0  0
  6 10  1  0  0  0  0
  7  8  2  0  0  0  0
  7 34  1  0  0  0  0
  8  9  1  0  0  0  0
  8 16  1  0  0  0  0
  9 12  2  0  0  0  0
 10 13  1  0  0  0  0
 10 14  2  0  0  0  0
 11 23  2  0  0  0  0
 11 24  1  0  0  0  0
 13 19  2  0  0  0  0
 13 35  1  0  0  0  0
 14 18  1  0  0  0  0
 14 36  1  0  0  0  0
 15 16  1  0  0  0  0
 15 22  1  0  0  0  0
 15 37  1  0  0  0  0
 15 38  1  0  0  0  0
 16 39  1  0  0  0  0
 16 40  1  0  0  0  0
 17 18  2  0  0  0  0
 17 19  1  0  0  0  0
 17 20  1  0  0  0  0
 18 41  1  0  0  0  0
 19 42  1  0  0  0  0
 21 22  1  0  0  0  0
 21 25  2  0  0  0  0
 21 26  1  0  0  0  0
 22 43  1  0  0  0  0
 22 44  1  0  0  0  0
 23 27  1  0  0  0  0
 23 45  1  0  0  0  0
 24 28  2  0  0  0  0
 24 46  1  0  0  0  0
 25 29  1  0  0  0  0
 25 47  1  0  0  0  0
 26 30  2  0  0  0  0
 26 48  1  0  0  0  0
 27 31  2  0  0  0  0
 27 49  1  0  0  0  0
 28 31  1  0  0  0  0
 28 50  1  0  0  0  0
 29 32  2  0  0  0  0
 29 51  1  0  0  0  0
 30 32  1  0  0  0  0
 30 52  1  0  0  0  0
 31 53  1  0  0  0  0
 32 54  1  0  0  0  0
M  CHG  1  15   1
M  END
>  <$CLUSTER>
274

>  <INDEX>
614360

$$$$
Comgenex CGX-3338747
  MOE2020           3D

 40 42  0  0  0  0  0  0  0  0999 V2000
   -0.2110   -0.1360    0.3340 N   0  0  0  0  0  0  0  0  0  0  0  0
    0.9460    0.5660    0.0800 C   0  0  0  0  0  0  0  0  0  0  0  0
    1.4680    0.2440   -1.0820 N   0  0  0  0  0  0  0  0  0  0  0  0
   -0.4330   -0.9560   -0.7570 C   0  0  0  0  0  0  0  0  0  0  0  0
    0.6240   -0.6950   -1.6050 C   0  0  0  0  0  0  0  0  0  0  0  0
    1.6020    1.7370    1.1850 S   0  0  0  0  0  0  0  0  0  0  0  0
   -1.0570   -0.0560    1.5140 C   0  0  0  0  0  0  0  0  0  0  0  0
   -2.1170    1.0260    1.3960 C   0  0  0  0  0  0  0  0  0  0  0  0
    3.0730    2.2860    0.2930 C   0  0  0  0  0  0  0  0  0  0  0  0
   -4.0620    3.0320    1.1620 C   0  0  0  0  0  0  0  0  0  0  0  0
   -1.5770   -1.8840   -0.9150 C   0  0  0  0  0  0  0  0  0  0  0  0
   -4.9280    4.0430    1.0830 F   0  0  0  0  0  0  0  0  0  0  0  0
   -3.4270    0.7020    1.0200 C   0  0  0  0  0  0  0  0  0  0  0  0
   -1.7850    2.3680    1.6310 C   0  0  0  0  0  0  0  0  0  0  0  0
   -4.3970    1.7020    0.9080 C   0  0  0  0  0  0  0  0  0  0  0  0
   -2.7560    3.3660    1.5200 C   0  0  0  0  0  0  0  0  0  0  0  0
    2.7320    3.1220   -0.9370 C   0  0  0  0  0  0  0  0  0  0  0  0
   -1.2630   -3.0620   -0.1880 O   0  0  0  0  0  0  0  0  0  0  0  0
    2.4830    2.5000   -2.1660 C   0  0  0  0  0  0  0  0  0  0  0  0
    2.6270    4.5150   -0.8370 C   0  0  0  0  0  0  0  0  0  0  0  0
    2.3000    5.2770   -1.9600 C   0  0  0  0  0  0  0  0  0  0  0  0
    2.1550    3.2660   -3.2870 C   0  0  0  0  0  0  0  0  0  0  0  0
    2.0650    4.6530   -3.1850 C   0  0  0  0  0  0  0  0  0  0  0  0
    0.7660   -1.1730   -2.5630 H   0  0  0  0  0  0  0  0  0  0  0  0
   -0.4310    0.1610    2.3790 H   0  0  0  0  0  0  0  0  0  0  0  0
   -1.5520   -1.0170    1.6550 H   0  0  0  0  0  0  0  0  0  0  0  0
    3.6360    1.4090   -0.0260 H   0  0  0  0  0  0  0  0  0  0  0  0
    3.6860    2.8870    0.9650 H   0  0  0  0  0  0  0  0  0  0  0  0
   -1.7220   -2.1230   -1.9690 H   0  0  0  0  0  0  0  0  0  0  0  0
   -2.4840   -1.4300   -0.5170 H   0  0  0  0  0  0  0  0  0  0  0  0
   -3.6890   -0.3260    0.8160 H   0  0  0  0  0  0  0  0  0  0  0  0
   -0.7730    2.6310    1.8990 H   0  0  0  0  0  0  0  0  0  0  0  0
   -5.4070    1.4450    0.6250 H   0  0  0  0  0  0  0  0  0  0  0  0
   -2.4950    4.3960    1.7110 H   0  0  0  0  0  0  0  0  0  0  0  0
   -0.4620   -3.4320   -0.5660 H   0  0  0  0  0  0  0  0  0  0  0  0
    2.5450    1.4250   -2.2480 H   0  0  0  0  0  0  0  0  0  0  0  0
    2.8000    5.0010    0.1120 H   0  0  0  0  0  0  0  0  0  0  0  0
    2.2290    6.3520   -1.8800 H   0  0  0  0  0  0  0  0  0  0  0  0
    1.9710    2.7820   -4.2350 H   0  0  0  0  0  0  0  0  0  0  0  0
    1.8140    5.2440   -4.0530 H   0  0  0  0  0  0  0  0  0  0  0  0
  1  2  1  0  0  0  0
  1  4  1  0  0  0  0
  1  7  1  0  0  0  0
  2  3  2  0  0  0  0
  2  6  1  0  0  0  0
  3  5  1  0  0  0  0
  4  5  2  0  0  0  0
  4 11  1  0  0  0  0
  5 24  1  0  0  0  0
  6  9  1  0  0  0  0
  7  8  1  0  0  0  0
  7 25  1  0  0  0  0
  7 26  1  0  0  0  0
  8 13  2  0  0  0  0
  8 14  1  0  0  0  0
  9 17  1  0  0  0  0
  9 27  1  0  0  0  0
  9 28  1  0  0  0  0
 10 12  1  0  0  0  0
 10 15  2  0  0  0  0
 10 16  1  0  0  0  0
 11 18  1  0  0  0  0
 11 29  1  0  0  0  0
 11 30  1  0  0  0  0
 13 15  1  0  0  0  0
 13 31  1  0  0  0  0
 14 16  2  0  0  0  0
 14 32  1  0  0  0  0
 15 33  1  0  0  0  0
 16 34  1  0  0  0  0
 17 19  1  0  0  0  0
 17 20  2  0  0  0  0
 18 35  1  0  0  0  0
 19 22  2  0  0  0  0
 19 36  1  0  0  0  0
 20 21  1  0  0  0  0
 20 37  1  0  0  0  0
 21 23  2  0  0  0  0
 21 38  1  0  0  0  0
 22 23  1  0  0  0  0
 22 39  1  0  0  0  0
 23 40  1  0  0  0  0
M  END
>  <$CLUSTER>
275

>  <INDEX>
267705

$$$$
Chem T&I NSB 0053535
  MOE2020           3D

 34 36  0  0  0  0  0  0  0  0999 V2000
   -0.6840   -0.1030    0.1850 C   0  0  0  0  0  0  0  0  0  0  0  0
    1.3960    0.7600   -0.8040 N   0  3  0  0  0  0  0  0  0  0  0  0
   -1.4560    1.0090   -0.3840 C   0  0  0  0  0  0  0  0  0  0  0  0
    0.6960   -0.1830    0.0310 C   0  0  0  0  0  0  0  0  0  0  0  0
   -2.6490    0.6900   -0.9410 N   0  0  0  0  0  0  0  0  0  0  0  0
    1.4470   -1.2040    0.6250 C   0  0  0  0  0  0  0  0  0  0  0  0
   -1.3300   -1.0750    0.9600 C   0  0  0  0  0  0  0  0  0  0  0  0
    1.1720    0.7200   -2.0240 O   0  5  0  0  0  0  0  0  0  0  0  0
    2.2250    1.5020   -0.2530 O   0  0  0  0  0  0  0  0  0  0  0  0
   -3.6390    1.4560   -1.5660 C   0  0  0  0  0  0  0  0  0  0  0  0
   -1.0180    2.1530   -0.3430 O   0  0  0  0  0  0  0  0  0  0  0  0
   -4.5440    3.5620   -2.3600 C   0  0  0  0  0  0  0  0  0  0  0  0
   -3.5260    2.8400   -1.7270 C   0  0  0  0  0  0  0  0  0  0  0  0
   -5.6800    2.9110   -2.8360 C   0  0  0  0  0  0  0  0  0  0  0  0
   -5.8020    1.5330   -2.6790 C   0  0  0  0  0  0  0  0  0  0  0  0
   -0.5930   -2.1020    1.5560 C   0  0  0  0  0  0  0  0  0  0  0  0
    0.7910   -2.1650    1.3920 C   0  0  0  0  0  0  0  0  0  0  0  0
   -4.7880    0.8110   -2.0490 C   0  0  0  0  0  0  0  0  0  0  0  0
   -1.4050   -3.2780    2.4860 Cl  0  0  0  0  0  0  0  0  0  0  0  0
   -4.4240    4.9690   -2.5210 C   0  0  0  0  0  0  0  0  0  0  0  0
   -6.6980    3.6540   -3.4710 C   0  0  0  0  0  0  0  0  0  0  0  0
   -5.4370    5.6910   -3.1510 C   0  0  0  0  0  0  0  0  0  0  0  0
   -6.5710    5.0350   -3.6250 C   0  0  0  0  0  0  0  0  0  0  0  0
   -2.8670   -0.2950   -0.8960 H   0  0  0  0  0  0  0  0  0  0  0  0
    2.5180   -1.2460    0.4910 H   0  0  0  0  0  0  0  0  0  0  0  0
   -2.4000   -1.0310    1.0970 H   0  0  0  0  0  0  0  0  0  0  0  0
   -2.6490    3.3540   -1.3610 H   0  0  0  0  0  0  0  0  0  0  0  0
   -6.6810    1.0230   -3.0450 H   0  0  0  0  0  0  0  0  0  0  0  0
    1.3540   -2.9590    1.8600 H   0  0  0  0  0  0  0  0  0  0  0  0
   -4.8890   -0.2580   -1.9320 H   0  0  0  0  0  0  0  0  0  0  0  0
   -3.5460    5.4800   -2.1540 H   0  0  0  0  0  0  0  0  0  0  0  0
   -7.5800    3.1510   -3.8400 H   0  0  0  0  0  0  0  0  0  0  0  0
   -5.3420    6.7600   -3.2720 H   0  0  0  0  0  0  0  0  0  0  0  0
   -7.3540    5.5970   -4.1130 H   0  0  0  0  0  0  0  0  0  0  0  0
  1  3  1  0  0  0  0
  1  4  2  0  0  0  0
  1  7  1  0  0  0  0
  2  4  1  0  0  0  0
  2  8  1  0  0  0  0
  2  9  2  0  0  0  0
  3  5  1  0  0  0  0
  3 11  2  0  0  0  0
  4  6  1  0  0  0  0
  5 10  1  0  0  0  0
  5 24  1  0  0  0  0
  6 17  2  0  0  0  0
  6 25  1  0  0  0  0
  7 16  2  0  0  0  0
  7 26  1  0  0  0  0
 10 13  2  0  0  0  0
 10 18  1  0  0  0  0
 12 13  1  0  0  0  0
 12 14  2  0  0  0  0
 12 20  1  0  0  0  0
 13 27  1  0  0  0  0
 14 15  1  0  0  0  0
 14 21  1  0  0  0  0
 15 18  2  0  0  0  0
 15 28  1  0  0  0  0
 16 17  1  0  0  0  0
 16 19  1  0  0  0  0
 17 29  1  0  0  0  0
 18 30  1  0  0  0  0
 20 22  2  0  0  0  0
 20 31  1  0  0  0  0
 21 23  2  0  0  0  0
 21 32  1  0  0  0  0
 22 23  1  0  0  0  0
 22 33  1  0  0  0  0
 23 34  1  0  0  0  0
M  CHG  1   2   1
M  CHG  1   8  -1
M  END
>  <$CLUSTER>
276

>  <INDEX>
572424

$$$$
Asinex BAS 00915964
  MOE2020           3D

 58 61  0  0  1  0  0  0  0  0999 V2000
   -1.0100   -1.4870   -0.2050 C   0  0  0  0  0  0  0  0  0  0  0  0
    1.2280   -0.2630   -0.2420 C   0  0  0  0  0  0  0  0  0  0  0  0
    1.6590   -1.1400    0.6870 C   0  0  0  0  0  0  0  0  0  0  0  0
   -0.4820   -2.3240    0.7150 C   0  0  0  0  0  0  0  0  0  0  0  0
   -0.2150   -0.2910   -0.7490 C   0  0  3  0  0  0  0  0  0  0  0  0
    0.8130   -2.1240    1.1630 N   0  0  0  0  0  0  0  0  0  0  0  0
    2.1870    0.7170   -0.8260 C   0  0  0  0  0  0  0  0  0  0  0  0
   -2.3890   -1.6770   -0.6910 C   0  0  0  0  0  0  0  0  0  0  0  0
    3.0530   -1.1220    1.2590 C   0  0  0  0  0  0  0  0  0  0  0  0
    3.7510    0.2340    1.1070 C   0  0  3  0  0  0  0  0  0  0  0  0
    3.6180    0.7290   -0.3310 C   0  0  0  0  0  0  0  0  0  0  0  0
   -0.9410    1.0190   -0.4470 C   0  0  0  0  0  0  0  0  0  0  0  0
    1.8430    1.4630   -1.7410 O   0  0  0  0  0  0  0  0  0  0  0  0
   -3.3750   -1.8170    0.0170 O   0  0  0  0  0  0  0  0  0  0  0  0
    3.2230    1.2670    2.1100 C   0  0  0  0  0  0  0  0  0  0  0  0
   -1.4790    1.7800   -1.4970 C   0  0  0  0  0  0  0  0  0  0  0  0
   -1.0990    1.4820    0.8700 C   0  0  0  0  0  0  0  0  0  0  0  0
   -2.4110   -1.6630   -2.0450 O   0  0  0  0  0  0  0  0  0  0  0  0
   -1.1770   -3.5250    1.2980 C   0  0  0  0  0  0  0  0  0  0  0  0
   -2.2960    3.4240    0.0740 C   0  0  0  0  0  0  0  0  0  0  0  0
   -2.1510    2.9750   -1.2370 C   0  0  0  0  0  0  0  0  0  0  0  0
   -1.7710    2.6780    1.1270 C   0  0  0  0  0  0  0  0  0  0  0  0
   -2.9780    4.6120    0.2000 O   0  0  0  0  0  0  0  0  0  0  0  0
    4.0920    1.8120    3.0560 C   0  0  0  0  0  0  0  0  0  0  0  0
    1.8810    1.6690    2.1060 C   0  0  0  0  0  0  0  0  0  0  0  0
   -3.6920   -1.8350   -2.6770 C   0  0  0  0  0  0  0  0  0  0  0  0
   -3.1550    5.1160    1.5190 C   0  0  0  0  0  0  0  0  0  0  0  0
   -3.5060   -1.7970   -4.1800 C   0  0  0  0  0  0  0  0  0  0  0  0
    3.6340    2.7520    3.9800 C   0  0  0  0  0  0  0  0  0  0  0  0
    1.4240    2.6080    3.0300 C   0  0  0  0  0  0  0  0  0  0  0  0
    2.3000    3.1480    3.9670 C   0  0  0  0  0  0  0  0  0  0  0  0
   -0.1540   -0.4100   -1.8310 H   0  0  0  0  0  0  0  0  0  0  0  0
    1.1620   -2.7380    1.8850 H   0  0  0  0  0  0  0  0  0  0  0  0
    3.6480   -1.8770    0.7450 H   0  0  0  0  0  0  0  0  0  0  0  0
    2.9950   -1.3650    2.3200 H   0  0  0  0  0  0  0  0  0  0  0  0
    4.8090    0.0990    1.3320 H   0  0  0  0  0  0  0  0  0  0  0  0
    3.9960    1.7500   -0.3840 H   0  0  0  0  0  0  0  0  0  0  0  0
    4.2150    0.0860   -0.9770 H   0  0  0  0  0  0  0  0  0  0  0  0
   -1.3720    1.4370   -2.5160 H   0  0  0  0  0  0  0  0  0  0  0  0
   -0.6970    0.9070    1.6910 H   0  0  0  0  0  0  0  0  0  0  0  0
   -0.5170   -4.0150    2.0140 H   0  0  0  0  0  0  0  0  0  0  0  0
   -1.4280   -4.2230    0.4990 H   0  0  0  0  0  0  0  0  0  0  0  0
   -2.0890   -3.2070    1.8030 H   0  0  0  0  0  0  0  0  0  0  0  0
   -2.5590    3.5530   -2.0530 H   0  0  0  0  0  0  0  0  0  0  0  0
   -1.8840    3.0260    2.1430 H   0  0  0  0  0  0  0  0  0  0  0  0
    5.1270    1.5040    3.0730 H   0  0  0  0  0  0  0  0  0  0  0  0
    1.1970    1.2490    1.3830 H   0  0  0  0  0  0  0  0  0  0  0  0
   -4.3620   -1.0320   -2.3710 H   0  0  0  0  0  0  0  0  0  0  0  0
   -4.1180   -2.7950   -2.3850 H   0  0  0  0  0  0  0  0  0  0  0  0
   -3.7070    6.0550    1.4780 H   0  0  0  0  0  0  0  0  0  0  0  0
   -2.1810    5.2870    1.9770 H   0  0  0  0  0  0  0  0  0  0  0  0
   -3.7130    4.3920    2.1130 H   0  0  0  0  0  0  0  0  0  0  0  0
   -3.0800   -0.8360   -4.4690 H   0  0  0  0  0  0  0  0  0  0  0  0
   -4.4710   -1.9280   -4.6690 H   0  0  0  0  0  0  0  0  0  0  0  0
   -2.8330   -2.5990   -4.4830 H   0  0  0  0  0  0  0  0  0  0  0  0
    4.3150    3.1720    4.7050 H   0  0  0  0  0  0  0  0  0  0  0  0
    0.3890    2.9170    3.0190 H   0  0  0  0  0  0  0  0  0  0  0  0
    1.9450    3.8740    4.6830 H   0  0  0  0  0  0  0  0  0  0  0  0
  1  4  2  0  0  0  0
  1  5  1  0  0  0  0
  1  8  1  0  0  0  0
  2  3  2  0  0  0  0
  2  5  1  0  0  0  0
  2  7  1  0  0  0  0
  3  6  1  0  0  0  0
  3  9  1  0  0  0  0
  4  6  1  0  0  0  0
  4 19  1  0  0  0  0
  5 12  1  0  0  0  0
  5 32  1  0  0  0  0
  6 33  1  0  0  0  0
  7 11  1  0  0  0  0
  7 13  2  0  0  0  0
  8 14  2  0  0  0  0
  8 18  1  0  0  0  0
  9 10  1  0  0  0  0
  9 34  1  0  0  0  0
  9 35  1  0  0  0  0
 10 11  1  0  0  0  0
 10 15  1  0  0  0  0
 10 36  1  0  0  0  0
 11 37  1  0  0  0  0
 11 38  1  0  0  0  0
 12 16  2  0  0  0  0
 12 17  1  0  0  0  0
 15 24  2  0  0  0  0
 15 25  1  0  0  0  0
 16 21  1  0  0  0  0
 16 39  1  0  0  0  0
 17 22  2  0  0  0  0
 17 40  1  0  0  0  0
 18 26  1  0  0  0  0
 19 41  1  0  0  0  0
 19 42  1  0  0  0  0
 19 43  1  0  0  0  0
 20 21  2  0  0  0  0
 20 22  1  0  0  0  0
 20 23  1  0  0  0  0
 21 44  1  0  0  0  0
 22 45  1  0  0  0  0
 23 27  1  0  0  0  0
 24 29  1  0  0  0  0
 24 46  1  0  0  0  0
 25 30  2  0  0  0  0
 25 47  1  0  0  0  0
 26 28  1  0  0  0  0
 26 48  1  0  0  0  0
 26 49  1  0  0  0  0
 27 50  1  0  0  0  0
 27 51  1  0  0  0  0
 27 52  1  0  0  0  0
 28 53  1  0  0  0  0
 28 54  1  0  0  0  0
 28 55  1  0  0  0  0
 29 31  2  0  0  0  0
 29 56  1  0  0  0  0
 30 31  1  0  0  0  0
 30 57  1  0  0  0  0
 31 58  1  0  0  0  0
M  END
>  <$CLUSTER>
277

>  <INDEX>
174837

$$$$
Asinex BAS 02833814
  MOE2020           3D

 57 59  0  0  0  0  0  0  0  0999 V2000
   -0.2510   -0.4430   -0.2980 N   0  0  0  0  0  0  0  0  0  0  0  0
    0.1090    0.1080    0.9150 C   0  0  0  0  0  0  0  0  0  0  0  0
    0.3950    1.3840    0.7320 N   0  0  0  0  0  0  0  0  0  0  0  0
   -0.1360    0.5740   -1.2090 C   0  0  0  0  0  0  0  0  0  0  0  0
    0.2460    1.6740   -0.6020 N   0  0  0  0  0  0  0  0  0  0  0  0
   -0.4490    0.3920   -2.9020 S   0  0  0  0  0  0  0  0  0  0  0  0
    6.7230    5.1180   -0.4930 C   0  0  0  0  0  0  0  0  0  0  0  0
    1.3770    2.4040   -3.4680 C   0  0  0  0  0  0  0  0  0  0  0  0
    5.4600    4.5740   -1.0150 C   0  0  0  0  0  0  0  0  0  0  0  0
    1.7600    3.0780   -2.3590 N   0  0  0  0  0  0  0  0  0  0  0  0
    0.1500   -0.6250    2.2220 C   0  0  0  0  0  0  0  0  0  0  0  0
    6.8240    5.7380    0.5550 O   0  0  0  0  0  0  0  0  0  0  0  0
    2.1680    2.0300   -4.3260 O   0  0  0  0  0  0  0  0  0  0  0  0
   -0.6660   -1.8130   -0.5350 C   0  0  0  0  0  0  0  0  0  0  0  0
   -0.1090    2.0580   -3.5100 C   0  0  0  0  0  0  0  0  0  0  0  0
    5.3950    3.8740   -2.2170 C   0  0  0  0  0  0  0  0  0  0  0  0
    4.3040    4.7760   -0.2690 C   0  0  0  0  0  0  0  0  0  0  0  0
    3.0040    3.5700   -1.9370 C   0  0  0  0  0  0  0  0  0  0  0  0
    7.7640    4.8500   -1.3150 O   0  0  0  0  0  0  0  0  0  0  0  0
    3.0830    4.2770   -0.7270 C   0  0  0  0  0  0  0  0  0  0  0  0
    4.1740    3.3720   -2.6780 C   0  0  0  0  0  0  0  0  0  0  0  0
   -1.1470   -0.3980    2.9980 C   0  0  0  0  0  0  0  0  0  0  0  0
    1.3560   -0.1860    3.0560 C   0  0  0  0  0  0  0  0  0  0  0  0
    9.0530    5.3190   -0.9300 C   0  0  0  0  0  0  0  0  0  0  0  0
    0.5020   -2.7250   -0.8670 C   0  0  0  0  0  0  0  0  0  0  0  0
   10.0600    4.9140   -1.9870 C   0  0  0  0  0  0  0  0  0  0  0  0
   -1.1230   -1.0860    4.3730 C   0  0  0  0  0  0  0  0  0  0  0  0
    1.3910   -0.8700    4.4250 C   0  0  0  0  0  0  0  0  0  0  0  0
    0.0890   -0.6550    5.1910 C   0  0  0  0  0  0  0  0  0  0  0  0
    1.0070    3.2620   -1.7120 H   0  0  0  0  0  0  0  0  0  0  0  0
    0.2510   -1.6900    2.0140 H   0  0  0  0  0  0  0  0  0  0  0  0
   -1.3680   -1.8260   -1.3690 H   0  0  0  0  0  0  0  0  0  0  0  0
   -1.1590   -2.1890    0.3610 H   0  0  0  0  0  0  0  0  0  0  0  0
   -0.6520    2.7730   -2.8920 H   0  0  0  0  0  0  0  0  0  0  0  0
   -0.4560    2.1310   -4.5410 H   0  0  0  0  0  0  0  0  0  0  0  0
    6.2930    3.7180   -2.7970 H   0  0  0  0  0  0  0  0  0  0  0  0
    4.3510    5.3180    0.6640 H   0  0  0  0  0  0  0  0  0  0  0  0
    2.1890    4.4370   -0.1430 H   0  0  0  0  0  0  0  0  0  0  0  0
    4.1340    2.8290   -3.6110 H   0  0  0  0  0  0  0  0  0  0  0  0
   -1.9790   -0.7990    2.4180 H   0  0  0  0  0  0  0  0  0  0  0  0
   -1.2880    0.6730    3.1430 H   0  0  0  0  0  0  0  0  0  0  0  0
    1.3070    0.8930    3.2040 H   0  0  0  0  0  0  0  0  0  0  0  0
    2.2680   -0.4370    2.5140 H   0  0  0  0  0  0  0  0  0  0  0  0
    9.3310    4.8790    0.0280 H   0  0  0  0  0  0  0  0  0  0  0  0
    9.0350    6.4050   -0.8390 H   0  0  0  0  0  0  0  0  0  0  0  0
    1.0050   -2.3600   -1.7630 H   0  0  0  0  0  0  0  0  0  0  0  0
    0.1350   -3.7360   -1.0430 H   0  0  0  0  0  0  0  0  0  0  0  0
    1.2050   -2.7330   -0.0340 H   0  0  0  0  0  0  0  0  0  0  0  0
   10.0760    3.8280   -2.0760 H   0  0  0  0  0  0  0  0  0  0  0  0
   11.0500    5.2700   -1.7010 H   0  0  0  0  0  0  0  0  0  0  0  0
    9.7780    5.3530   -2.9440 H   0  0  0  0  0  0  0  0  0  0  0  0
   -1.0870   -2.1660    4.2280 H   0  0  0  0  0  0  0  0  0  0  0  0
   -2.0300   -0.8220    4.9170 H   0  0  0  0  0  0  0  0  0  0  0  0
    2.2160   -0.4580    5.0060 H   0  0  0  0  0  0  0  0  0  0  0  0
    1.5460   -1.9400    4.2830 H   0  0  0  0  0  0  0  0  0  0  0  0
    0.1200   -1.2380    6.1110 H   0  0  0  0  0  0  0  0  0  0  0  0
   -0.0070    0.4030    5.4350 H   0  0  0  0  0  0  0  0  0  0  0  0
  1  2  1  0  0  0  0
  1  4  1  0  0  0  0
  1 14  1  0  0  0  0
  2  3  2  0  0  0  0
  2 11  1  0  0  0  0
  3  5  1  0  0  0  0
  4  5  2  0  0  0  0
  4  6  1  0  0  0  0
  6 15  1  0  0  0  0
  7  9  1  0  0  0  0
  7 12  2  0  0  0  0
  7 19  1  0  0  0  0
  8 10  1  0  0  0  0
  8 13  2  0  0  0  0
  8 15  1  0  0  0  0
  9 16  1  0  0  0  0
  9 17  2  0  0  0  0
 10 18  1  0  0  0  0
 10 30  1  0  0  0  0
 11 22  1  0  0  0  0
 11 23  1  0  0  0  0
 11 31  1  0  0  0  0
 14 25  1  0  0  0  0
 14 32  1  0  0  0  0
 14 33  1  0  0  0  0
 15 34  1  0  0  0  0
 15 35  1  0  0  0  0
 16 21  2  0  0  0  0
 16 36  1  0  0  0  0
 17 20  1  0  0  0  0
 17 37  1  0  0  0  0
 18 20  2  0  0  0  0
 18 21  1  0  0  0  0
 19 24  1  0  0  0  0
 20 38  1  0  0  0  0
 21 39  1  0  0  0  0
 22 27  1  0  0  0  0
 22 40  1  0  0  0  0
 22 41  1  0  0  0  0
 23 28  1  0  0  0  0
 23 42  1  0  0  0  0
 23 43  1  0  0  0  0
 24 26  1  0  0  0  0
 24 44  1  0  0  0  0
 24 45  1  0  0  0  0
 25 46  1  0  0  0  0
 25 47  1  0  0  0  0
 25 48  1  0  0  0  0
 26 49  1  0  0  0  0
 26 50  1  0  0  0  0
 26 51  1  0  0  0  0
 27 29  1  0  0  0  0
 27 52  1  0  0  0  0
 27 53  1  0  0  0  0
 28 29  1  0  0  0  0
 28 54  1  0  0  0  0
 28 55  1  0  0  0  0
 29 56  1  0  0  0  0
 29 57  1  0  0  0  0
M  END
>  <$CLUSTER>
278

>  <INDEX>
178461

$$$$
Sigma-Aldrich (SALOR) R948357
  MOE2020           3D

 36 37  0  0  0  0  0  0  0  0999 V2000
   -0.0320   -0.0570    0.1590 C   0  0  0  0  0  0  0  0  0  0  0  0
   -1.9840    0.7410    1.6720 N   0  0  0  0  0  0  0  0  0  0  0  0
    0.2020    0.9870   -2.2040 N   0  0  0  0  0  0  0  0  0  0  0  0
    0.0970    0.5180   -1.1430 C   0  0  0  0  0  0  0  0  0  0  0  0
   -1.1090    0.3850    0.9910 C   0  0  0  0  0  0  0  0  0  0  0  0
    4.2230   -2.4640   -0.0290 C   0  0  0  0  0  0  0  0  0  0  0  0
    0.8230   -0.9940    0.6200 C   0  0  0  0  0  0  0  0  0  0  0  0
    5.4010   -2.8300    0.6050 O   0  0  0  0  0  0  0  0  0  0  0  0
    2.0020   -1.5800   -0.0950 C   0  0  0  0  0  0  0  0  0  0  0  0
    3.1200   -1.9100    0.6230 C   0  0  0  0  0  0  0  0  0  0  0  0
    4.1840   -2.6790   -1.4040 C   0  0  0  0  0  0  0  0  0  0  0  0
    3.0400   -2.3450   -2.1270 C   0  0  0  0  0  0  0  0  0  0  0  0
    1.9370   -1.7890   -1.4760 C   0  0  0  0  0  0  0  0  0  0  0  0
    5.4810   -2.6230    2.0100 C   0  0  0  0  0  0  0  0  0  0  0  0
    5.3210   -3.2330   -1.9670 O   0  0  0  0  0  0  0  0  0  0  0  0
    6.7910   -3.0580    2.5480 C   0  0  0  0  0  0  0  0  0  0  0  0
    5.3110   -3.4670   -3.3710 C   0  0  0  0  0  0  0  0  0  0  0  0
    6.9890   -4.3860    2.9530 C   0  0  0  0  0  0  0  0  0  0  0  0
    7.8780   -2.1720    2.5760 C   0  0  0  0  0  0  0  0  0  0  0  0
    9.1250   -2.5950    3.0420 C   0  0  0  0  0  0  0  0  0  0  0  0
    8.2360   -4.8070    3.4190 C   0  0  0  0  0  0  0  0  0  0  0  0
    9.3020   -3.9110    3.4640 C   0  0  0  0  0  0  0  0  0  0  0  0
    0.6360   -1.3630    1.6180 H   0  0  0  0  0  0  0  0  0  0  0  0
    3.1480   -1.7420    1.6900 H   0  0  0  0  0  0  0  0  0  0  0  0
    3.0070   -2.5170   -3.1930 H   0  0  0  0  0  0  0  0  0  0  0  0
    1.0480   -1.5250   -2.0300 H   0  0  0  0  0  0  0  0  0  0  0  0
    5.3460   -1.5620    2.2200 H   0  0  0  0  0  0  0  0  0  0  0  0
    4.6900   -3.1930    2.4980 H   0  0  0  0  0  0  0  0  0  0  0  0
    6.2630   -3.9020   -3.6740 H   0  0  0  0  0  0  0  0  0  0  0  0
    5.1600   -2.5240   -3.8960 H   0  0  0  0  0  0  0  0  0  0  0  0
    4.5020   -4.1540   -3.6190 H   0  0  0  0  0  0  0  0  0  0  0  0
    6.1700   -5.0890    2.9040 H   0  0  0  0  0  0  0  0  0  0  0  0
    7.7500   -1.1550    2.2350 H   0  0  0  0  0  0  0  0  0  0  0  0
    9.9520   -1.9020    3.0750 H   0  0  0  0  0  0  0  0  0  0  0  0
    8.3740   -5.8270    3.7450 H   0  0  0  0  0  0  0  0  0  0  0  0
   10.2660   -4.2370    3.8260 H   0  0  0  0  0  0  0  0  0  0  0  0
  1  4  1  0  0  0  0
  1  5  1  0  0  0  0
  1  7  2  0  0  0  0
  2  5  3  0  0  0  0
  3  4  3  0  0  0  0
  6  8  1  0  0  0  0
  6 10  1  0  0  0  0
  6 11  2  0  0  0  0
  7  9  1  0  0  0  0
  7 23  1  0  0  0  0
  8 14  1  0  0  0  0
  9 10  2  0  0  0  0
  9 13  1  0  0  0  0
 10 24  1  0  0  0  0
 11 12  1  0  0  0  0
 11 15  1  0  0  0  0
 12 13  2  0  0  0  0
 12 25  1  0  0  0  0
 13 26  1  0  0  0  0
 14 16  1  0  0  0  0
 14 27  1  0  0  0  0
 14 28  1  0  0  0  0
 15 17  1  0  0  0  0
 16 18  1  0  0  0  0
 16 19  2  0  0  0  0
 17 29  1  0  0  0  0
 17 30  1  0  0  0  0
 17 31  1  0  0  0  0
 18 21  2  0  0  0  0
 18 32  1  0  0  0  0
 19 20  1  0  0  0  0
 19 33  1  0  0  0  0
 20 22  2  0  0  0  0
 20 34  1  0  0  0  0
 21 22  1  0  0  0  0
 21 35  1  0  0  0  0
 22 36  1  0  0  0  0
M  END
>  <$CLUSTER>
279

>  <INDEX>
616992

$$$$
Princeton Biomolecular OSSK_501436
  MOE2020           3D

 55 58  0  0  1  0  0  0  0  0999 V2000
    0.7670    0.6030   -0.1180 C   0  0  0  0  0  0  0  0  0  0  0  0
    1.0920   -0.7350   -0.0450 C   0  0  0  0  0  0  0  0  0  0  0  0
    3.0440    1.0630   -0.8350 N   0  0  0  0  0  0  0  0  0  0  0  0
    3.6670    1.6060   -1.9250 C   0  0  0  0  0  0  0  0  0  0  0  0
   -0.0500   -1.4570    0.1350 N   0  0  0  0  0  0  0  0  0  0  0  0
   -0.6440    0.7020    0.0360 C   0  0  0  0  0  0  0  0  0  0  0  0
    1.8030    1.6590   -0.2970 C   0  0  0  0  0  0  0  0  0  0  0  0
   -1.1310   -0.6020    0.1920 C   0  0  0  0  0  0  0  0  0  0  0  0
    5.3280    1.3160   -3.7460 N   0  3  0  0  0  0  0  0  0  0  0  0
    4.9260    0.9220   -2.3940 C   0  0  3  0  0  0  0  0  0  0  0  0
    2.4640   -1.2830   -0.1800 C   0  0  0  0  0  0  0  0  0  0  0  0
    3.4770   -0.1230   -0.0720 C   0  0  0  0  0  0  0  0  0  0  0  0
   -1.5600    1.7730    0.0620 C   0  0  0  0  0  0  0  0  0  0  0  0
    3.2620    2.6030   -2.5300 O   0  0  0  0  0  0  0  0  0  0  0  0
    5.4610    2.8020   -4.0390 C   0  0  0  0  0  0  0  0  0  0  0  0
    4.4810    0.6650   -4.8470 C   0  0  0  0  0  0  0  0  0  0  0  0
   -2.4910   -0.8820    0.3690 C   0  0  0  0  0  0  0  0  0  0  0  0
   -2.9230    1.5050    0.2380 C   0  0  0  0  0  0  0  0  0  0  0  0
   -3.3780    0.1970    0.3890 C   0  0  0  0  0  0  0  0  0  0  0  0
    5.0310    0.9310   -6.2230 C   0  0  0  0  0  0  0  0  0  0  0  0
    6.0170    3.0900   -5.3770 C   0  0  0  0  0  0  0  0  0  0  0  0
    5.1790    2.4360   -6.4820 C   0  0  0  0  0  0  0  0  0  0  0  0
    6.0890    1.1820   -1.4290 C   0  0  0  0  0  0  0  0  0  0  0  0
   -3.9050    2.6360    0.2660 C   0  0  0  0  0  0  0  0  0  0  0  0
    5.7960    2.6920   -7.8550 C   0  0  0  0  0  0  0  0  0  0  0  0
   -0.0970   -2.4630    0.2140 H   0  0  0  0  0  0  0  0  0  0  0  0
    2.0140    2.1250    0.6660 H   0  0  0  0  0  0  0  0  0  0  0  0
    1.4340    2.4130   -0.9920 H   0  0  0  0  0  0  0  0  0  0  0  0
    6.2710    0.9540   -3.7620 H   0  0  0  0  0  0  0  0  0  0  0  0
    4.6900   -0.1420   -2.4150 H   0  0  0  0  0  0  0  0  0  0  0  0
    2.6490   -2.0060    0.6140 H   0  0  0  0  0  0  0  0  0  0  0  0
    2.5690   -1.7720   -1.1480 H   0  0  0  0  0  0  0  0  0  0  0  0
    4.4390   -0.4590   -0.4600 H   0  0  0  0  0  0  0  0  0  0  0  0
    3.5850    0.1540    0.9770 H   0  0  0  0  0  0  0  0  0  0  0  0
   -1.2140    2.7900   -0.0530 H   0  0  0  0  0  0  0  0  0  0  0  0
    4.4730    3.2570   -3.9700 H   0  0  0  0  0  0  0  0  0  0  0  0
    6.1180    3.2440   -3.2900 H   0  0  0  0  0  0  0  0  0  0  0  0
    4.4580   -0.4120   -4.6810 H   0  0  0  0  0  0  0  0  0  0  0  0
    3.4680    1.0630   -4.7910 H   0  0  0  0  0  0  0  0  0  0  0  0
   -2.8420   -1.8970    0.4860 H   0  0  0  0  0  0  0  0  0  0  0  0
   -4.4340    0.0140    0.5240 H   0  0  0  0  0  0  0  0  0  0  0  0
    6.0090    0.4570   -6.3120 H   0  0  0  0  0  0  0  0  0  0  0  0
    4.3530    0.5080   -6.9640 H   0  0  0  0  0  0  0  0  0  0  0  0
    6.0290    4.1690   -5.5320 H   0  0  0  0  0  0  0  0  0  0  0  0
    7.0350    2.7050   -5.4290 H   0  0  0  0  0  0  0  0  0  0  0  0
    4.1860    2.8860   -6.4710 H   0  0  0  0  0  0  0  0  0  0  0  0
    6.3180    2.2480   -1.4150 H   0  0  0  0  0  0  0  0  0  0  0  0
    6.9660    0.6260   -1.7590 H   0  0  0  0  0  0  0  0  0  0  0  0
    5.8090    0.8570   -0.4270 H   0  0  0  0  0  0  0  0  0  0  0  0
   -4.9100    2.2410    0.4110 H   0  0  0  0  0  0  0  0  0  0  0  0
   -3.8600    3.1790   -0.6780 H   0  0  0  0  0  0  0  0  0  0  0  0
   -3.6590    3.3110    1.0860 H   0  0  0  0  0  0  0  0  0  0  0  0
    6.7920    2.2520   -7.8930 H   0  0  0  0  0  0  0  0  0  0  0  0
    5.8670    3.7660   -8.0270 H   0  0  0  0  0  0  0  0  0  0  0  0
    5.1690    2.2410   -8.6250 H   0  0  0  0  0  0  0  0  0  0  0  0
  1  2  2  0  0  0  0
  1  6  1  0  0  0  0
  1  7  1  0  0  0  0
  2  5  1  0  0  0  0
  2 11  1  0  0  0  0
  3  4  1  0  0  0  0
  3  7  1  0  0  0  0
  3 12  1  0  0  0  0
  4 10  1  0  0  0  0
  4 14  2  0  0  0  0
  5  8  1  0  0  0  0
  5 26  1  0  0  0  0
  6  8  2  0  0  0  0
  6 13  1  0  0  0  0
  7 27  1  0  0  0  0
  7 28  1  0  0  0  0
  8 17  1  0  0  0  0
  9 10  1  0  0  0  0
  9 15  1  0  0  0  0
  9 16  1  0  0  0  0
  9 29  1  0  0  0  0
 10 23  1  0  0  0  0
 10 30  1  0  0  0  0
 11 12  1  0  0  0  0
 11 31  1  0  0  0  0
 11 32  1  0  0  0  0
 12 33  1  0  0  0  0
 12 34  1  0  0  0  0
 13 18  2  0  0  0  0
 13 35  1  0  0  0  0
 15 21  1  0  0  0  0
 15 36  1  0  0  0  0
 15 37  1  0  0  0  0
 16 20  1  0  0  0  0
 16 38  1  0  0  0  0
 16 39  1  0  0  0  0
 17 19  2  0  0  0  0
 17 40  1  0  0  0  0
 18 19  1  0  0  0  0
 18 24  1  0  0  0  0
 19 41  1  0  0  0  0
 20 22  1  0  0  0  0
 20 42  1  0  0  0  0
 20 43  1  0  0  0  0
 21 22  1  0  0  0  0
 21 44  1  0  0  0  0
 21 45  1  0  0  0  0
 22 25  1  0  0  0  0
 22 46  1  0  0  0  0
 23 47  1  0  0  0  0
 23 48  1  0  0  0  0
 23 49  1  0  0  0  0
 24 50  1  0  0  0  0
 24 51  1  0  0  0  0
 24 52  1  0  0  0  0
 25 53  1  0  0  0  0
 25 54  1  0  0  0  0
 25 55  1  0  0  0  0
M  CHG  1   9   1
M  END
>  <$CLUSTER>
280

>  <INDEX>
587849

$$$$
Princeton Biomolecular OSSK_188329
  MOE2020           3D

 39 39  0  0  0  0  0  0  0  0999 V2000
    0.2480   -0.1120   -0.2930 C   0  0  0  0  0  0  0  0  0  0  0  0
    2.4260   -0.2920   -0.8590 C   0  0  0  0  0  0  0  0  0  0  0  0
    1.1660   -0.6680   -1.0920 N   0  0  0  0  0  0  0  0  0  0  0  0
    2.8350    0.5680    0.0750 N   0  0  0  0  0  0  0  0  0  0  0  0
    0.5380    0.7630    0.6770 N   0  0  0  0  0  0  0  0  0  0  0  0
    1.8340    1.0580    0.8090 C   0  0  0  0  0  0  0  0  0  0  0  0
   -1.0640   -0.4860   -0.5140 N   0  0  0  0  0  0  0  0  0  0  0  0
    3.3900   -0.8790   -1.7010 N   0  0  0  0  0  0  0  0  0  0  0  0
    1.7460    3.4370    3.5940 C   0  0  0  0  0  0  0  0  0  0  0  0
    1.5740    3.3030    4.9050 C   0  0  0  0  0  0  0  0  0  0  0  0
    2.2400    1.9550    1.7870 O   0  0  0  0  0  0  0  0  0  0  0  0
    4.8100   -0.5790   -1.6060 C   0  0  0  0  0  0  0  0  0  0  0  0
   -2.1770    0.0170    0.2750 C   0  0  0  0  0  0  0  0  0  0  0  0
    1.1600    2.4790    2.5730 C   0  0  0  0  0  0  0  0  0  0  0  0
    5.6060   -1.7920   -2.0840 C   0  0  0  0  0  0  0  0  0  0  0  0
    5.1360    0.6450   -2.4580 C   0  0  0  0  0  0  0  0  0  0  0  0
   -3.4370    0.0130   -0.5870 C   0  0  0  0  0  0  0  0  0  0  0  0
   -2.3700   -0.8600    1.5100 C   0  0  0  0  0  0  0  0  0  0  0  0
   -1.2590   -1.1400   -1.2590 H   0  0  0  0  0  0  0  0  0  0  0  0
    3.0820   -1.5380   -2.4020 H   0  0  0  0  0  0  0  0  0  0  0  0
    2.3330    4.2700    3.2370 H   0  0  0  0  0  0  0  0  0  0  0  0
    2.0160    4.0180    5.5830 H   0  0  0  0  0  0  0  0  0  0  0  0
    0.9920    2.4800    5.2920 H   0  0  0  0  0  0  0  0  0  0  0  0
    5.0770   -0.3600   -0.5720 H   0  0  0  0  0  0  0  0  0  0  0  0
   -1.9710    1.0360    0.6040 H   0  0  0  0  0  0  0  0  0  0  0  0
    0.4570    3.0080    1.9300 H   0  0  0  0  0  0  0  0  0  0  0  0
    0.6440    1.6650    3.0830 H   0  0  0  0  0  0  0  0  0  0  0  0
    5.3420   -2.0150   -3.1180 H   0  0  0  0  0  0  0  0  0  0  0  0
    5.3710   -2.6510   -1.4560 H   0  0  0  0  0  0  0  0  0  0  0  0
    6.6720   -1.5750   -2.0200 H   0  0  0  0  0  0  0  0  0  0  0  0
    4.8750    0.4440   -3.4970 H   0  0  0  0  0  0  0  0  0  0  0  0
    6.2010    0.8640   -2.3860 H   0  0  0  0  0  0  0  0  0  0  0  0
    4.5640    1.5010   -2.0990 H   0  0  0  0  0  0  0  0  0  0  0  0
   -3.6470   -1.0040   -0.9190 H   0  0  0  0  0  0  0  0  0  0  0  0
   -3.2850    0.6550   -1.4550 H   0  0  0  0  0  0  0  0  0  0  0  0
   -4.2780    0.3850   -0.0020 H   0  0  0  0  0  0  0  0  0  0  0  0
   -2.5770   -1.8840    1.2000 H   0  0  0  0  0  0  0  0  0  0  0  0
   -3.2070   -0.4820    2.0970 H   0  0  0  0  0  0  0  0  0  0  0  0
   -1.4640   -0.8400    2.1150 H   0  0  0  0  0  0  0  0  0  0  0  0
  1  3  2  0  0  0  0
  1  5  1  0  0  0  0
  1  7  1  0  0  0  0
  2  3  1  0  0  0  0
  2  4  2  0  0  0  0
  2  8  1  0  0  0  0
  4  6  1  0  0  0  0
  5  6  2  0  0  0  0
  6 11  1  0  0  0  0
  7 13  1  0  0  0  0
  7 19  1  0  0  0  0
  8 12  1  0  0  0  0
  8 20  1  0  0  0  0
  9 10  2  0  0  0  0
  9 14  1  0  0  0  0
  9 21  1  0  0  0  0
 10 22  1  0  0  0  0
 10 23  1  0  0  0  0
 11 14  1  0  0  0  0
 12 15  1  0  0  0  0
 12 16  1  0  0  0  0
 12 24  1  0  0  0  0
 13 17  1  0  0  0  0
 13 18  1  0  0  0  0
 13 25  1  0  0  0  0
 14 26  1  0  0  0  0
 14 27  1  0  0  0  0
 15 28  1  0  0  0  0
 15 29  1  0  0  0  0
 15 30  1  0  0  0  0
 16 31  1  0  0  0  0
 16 32  1  0  0  0  0
 16 33  1  0  0  0  0
 17 34  1  0  0  0  0
 17 35  1  0  0  0  0
 17 36  1  0  0  0  0
 18 37  1  0  0  0  0
 18 38  1  0  0  0  0
 18 39  1  0  0  0  0
M  END
>  <$CLUSTER>
281

>  <INDEX>
578970

$$$$
Life Chemicals F0658-0040
  MOE2020           3D

 43 44  0  0  0  0  0  0  0  0999 V2000
   -0.3540   -1.7400   -0.2350 N   0  0  0  0  0  0  0  0  0  0  0  0
    0.2350    0.2160   -1.1260 C   0  0  0  0  0  0  0  0  0  0  0  0
    0.1120   -1.1410   -1.3780 C   0  0  0  0  0  0  0  0  0  0  0  0
   -0.1720    0.4300    0.2330 C   0  0  0  0  0  0  0  0  0  0  0  0
   -0.5340   -0.8100    0.7600 C   0  0  0  0  0  0  0  0  0  0  0  0
    3.0570    2.3750   -4.2080 C   0  0  0  0  0  0  0  0  0  0  0  0
    3.1790    0.9400   -5.0490 S   0  0  0  0  0  0  0  0  0  0  0  0
   -0.2650    1.5670    1.0640 C   0  0  0  0  0  0  0  0  0  0  0  0
   -0.9860   -0.9720    2.0750 C   0  0  0  0  0  0  0  0  0  0  0  0
    2.6360    2.5400   -2.9200 N   0  0  0  0  0  0  0  0  0  0  0  0
    3.3920    3.5420   -4.8030 N   0  0  0  0  0  0  0  0  0  0  0  0
   -0.7150    1.4210    2.3820 C   0  0  0  0  0  0  0  0  0  0  0  0
    0.7060    1.2620   -2.0870 C   0  0  0  0  0  0  0  0  0  0  0  0
   -1.0690    0.1690    2.8770 C   0  0  0  0  0  0  0  0  0  0  0  0
   -0.7750    2.5470    3.1030 F   0  0  0  0  0  0  0  0  0  0  0  0
    0.3910   -1.9300   -2.6040 C   0  0  0  0  0  0  0  0  0  0  0  0
    2.2030    1.5110   -1.9830 C   0  0  0  0  0  0  0  0  0  0  0  0
    3.3770    4.9140   -4.2800 C   0  0  0  0  0  0  0  0  0  0  0  0
    1.9910    5.5330   -4.3550 C   0  0  0  0  0  0  0  0  0  0  0  0
    1.9750    6.9490   -3.8270 C   0  0  0  0  0  0  0  0  0  0  0  0
    0.5860    7.5700   -3.9020 C   0  0  0  0  0  0  0  0  0  0  0  0
   -0.5390   -2.7280   -0.1380 H   0  0  0  0  0  0  0  0  0  0  0  0
    0.0090    2.5410    0.6870 H   0  0  0  0  0  0  0  0  0  0  0  0
   -1.2610   -1.9440    2.4560 H   0  0  0  0  0  0  0  0  0  0  0  0
    2.6230    3.4890   -2.5750 H   0  0  0  0  0  0  0  0  0  0  0  0
    3.7020    3.4560   -5.7600 H   0  0  0  0  0  0  0  0  0  0  0  0
    0.1800    2.1930   -1.8760 H   0  0  0  0  0  0  0  0  0  0  0  0
    0.4750    0.9360   -3.1010 H   0  0  0  0  0  0  0  0  0  0  0  0
   -1.4130    0.0780    3.8970 H   0  0  0  0  0  0  0  0  0  0  0  0
    0.1720   -2.9810   -2.4170 H   0  0  0  0  0  0  0  0  0  0  0  0
    1.4410   -1.8210   -2.8750 H   0  0  0  0  0  0  0  0  0  0  0  0
   -0.2350   -1.5680   -3.4200 H   0  0  0  0  0  0  0  0  0  0  0  0
    2.4400    1.8320   -0.9690 H   0  0  0  0  0  0  0  0  0  0  0  0
    2.7330    0.5840   -2.2040 H   0  0  0  0  0  0  0  0  0  0  0  0
    4.0670    5.5220   -4.8650 H   0  0  0  0  0  0  0  0  0  0  0  0
    3.7000    4.8980   -3.2390 H   0  0  0  0  0  0  0  0  0  0  0  0
    1.3030    4.9290   -3.7630 H   0  0  0  0  0  0  0  0  0  0  0  0
    1.6650    5.5410   -5.3950 H   0  0  0  0  0  0  0  0  0  0  0  0
    2.6630    7.5530   -4.4190 H   0  0  0  0  0  0  0  0  0  0  0  0
    2.3010    6.9410   -2.7870 H   0  0  0  0  0  0  0  0  0  0  0  0
    0.2500    7.5840   -4.9390 H   0  0  0  0  0  0  0  0  0  0  0  0
    0.6230    8.5900   -3.5180 H   0  0  0  0  0  0  0  0  0  0  0  0
   -0.1080    6.9810   -3.3020 H   0  0  0  0  0  0  0  0  0  0  0  0
  1  3  1  0  0  0  0
  1  5  1  0  0  0  0
  1 22  1  0  0  0  0
  2  3  2  0  0  0  0
  2  4  1  0  0  0  0
  2 13  1  0  0  0  0
  3 16  1  0  0  0  0
  4  5  2  0  0  0  0
  4  8  1  0  0  0  0
  5  9  1  0  0  0  0
  6  7  2  0  0  0  0
  6 10  1  0  0  0  0
  6 11  1  0  0  0  0
  8 12  2  0  0  0  0
  8 23  1  0  0  0  0
  9 14  2  0  0  0  0
  9 24  1  0  0  0  0
 10 17  1  0  0  0  0
 10 25  1  0  0  0  0
 11 18  1  0  0  0  0
 11 26  1  0  0  0  0
 12 14  1  0  0  0  0
 12 15  1  0  0  0  0
 13 17  1  0  0  0  0
 13 27  1  0  0  0  0
 13 28  1  0  0  0  0
 14 29  1  0  0  0  0
 16 30  1  0  0  0  0
 16 31  1  0  0  0  0
 16 32  1  0  0  0  0
 17 33  1  0  0  0  0
 17 34  1  0  0  0  0
 18 19  1  0  0  0  0
 18 35  1  0  0  0  0
 18 36  1  0  0  0  0
 19 20  1  0  0  0  0
 19 37  1  0  0  0  0
 19 38  1  0  0  0  0
 20 21  1  0  0  0  0
 20 39  1  0  0  0  0
 20 40  1  0  0  0  0
 21 41  1  0  0  0  0
 21 42  1  0  0  0  0
 21 43  1  0  0  0  0
M  END
>  <$CLUSTER>
282

>  <INDEX>
282889

$$$$
Asinex ASN 04361294
  MOE2020           3D

 45 47  0  0  0  0  0  0  0  0999 V2000
    0.5140    3.6210   -5.3200 S   0  0  0  0  0  0  0  0  0  0  0  0
    0.7130    0.6750    0.2720 S   0  0  0  0  0  0  0  0  0  0  0  0
    1.9810    4.4230   -5.3940 N   0  0  0  0  0  0  0  0  0  0  0  0
   -0.7380   -0.1800    0.3130 N   0  0  0  0  0  0  0  0  0  0  0  0
    0.5770    2.8030   -3.7540 C   0  0  0  0  0  0  0  0  0  0  0  0
    0.6240    1.5020   -1.3140 C   0  0  0  0  0  0  0  0  0  0  0  0
    0.5130    2.6120   -6.3660 O   0  0  0  0  0  0  0  0  0  0  0  0
   -0.5340    4.6260   -5.2800 O   0  0  0  0  0  0  0  0  0  0  0  0
   -2.1100   -2.1180   -0.1940 C   0  0  0  0  0  0  0  0  0  0  0  0
   -3.6940   -1.7750   -0.7470 S   0  0  0  0  0  0  0  0  0  0  0  0
    0.6480    1.6750    1.3260 O   0  0  0  0  0  0  0  0  0  0  0  0
    1.8020   -0.2870    0.2480 O   0  0  0  0  0  0  0  0  0  0  0  0
   -0.9400   -1.2660   -0.6510 C   0  0  0  0  0  0  0  0  0  0  0  0
   -4.3470   -3.0960    0.1210 C   0  0  0  0  0  0  0  0  0  0  0  0
   -2.0830   -3.2270    0.6220 C   0  0  0  0  0  0  0  0  0  0  0  0
   -3.3780   -3.7890    0.8100 C   0  0  0  0  0  0  0  0  0  0  0  0
    1.1200    1.5210   -3.6620 C   0  0  0  0  0  0  0  0  0  0  0  0
    0.0650    3.4330   -2.6180 C   0  0  0  0  0  0  0  0  0  0  0  0
    0.0950    2.7810   -1.3850 C   0  0  0  0  0  0  0  0  0  0  0  0
    1.1520    0.8630   -2.4310 C   0  0  0  0  0  0  0  0  0  0  0  0
    2.1930    5.5700   -4.4710 C   0  0  0  0  0  0  0  0  0  0  0  0
    3.2160    3.6050   -5.5340 C   0  0  0  0  0  0  0  0  0  0  0  0
    4.4240    4.4360   -5.9540 C   0  0  0  0  0  0  0  0  0  0  0  0
    3.3860    6.4330   -4.8740 C   0  0  0  0  0  0  0  0  0  0  0  0
    4.6590    5.6110   -5.0170 C   0  0  0  0  0  0  0  0  0  0  0  0
   -1.4820    0.4880    0.1690 H   0  0  0  0  0  0  0  0  0  0  0  0
   -0.0400   -1.8790   -0.7050 H   0  0  0  0  0  0  0  0  0  0  0  0
   -1.1540   -0.8470   -1.6340 H   0  0  0  0  0  0  0  0  0  0  0  0
   -5.3950   -3.3560    0.1280 H   0  0  0  0  0  0  0  0  0  0  0  0
   -1.1830   -3.6250    1.0680 H   0  0  0  0  0  0  0  0  0  0  0  0
   -3.5760   -4.6570    1.4210 H   0  0  0  0  0  0  0  0  0  0  0  0
    1.5160    1.0380   -4.5430 H   0  0  0  0  0  0  0  0  0  0  0  0
   -0.3540    4.4250   -2.6940 H   0  0  0  0  0  0  0  0  0  0  0  0
   -0.2880    3.2660   -0.4990 H   0  0  0  0  0  0  0  0  0  0  0  0
    1.5790   -0.1250   -2.3470 H   0  0  0  0  0  0  0  0  0  0  0  0
    2.3650    5.1830   -3.4670 H   0  0  0  0  0  0  0  0  0  0  0  0
    1.2970    6.1900   -4.4730 H   0  0  0  0  0  0  0  0  0  0  0  0
    3.0420    2.8360   -6.2870 H   0  0  0  0  0  0  0  0  0  0  0  0
    3.4330    3.1330   -4.5760 H   0  0  0  0  0  0  0  0  0  0  0  0
    4.2560    4.8170   -6.9610 H   0  0  0  0  0  0  0  0  0  0  0  0
    5.3090    3.7990   -5.9490 H   0  0  0  0  0  0  0  0  0  0  0  0
    3.5430    7.1960   -4.1110 H   0  0  0  0  0  0  0  0  0  0  0  0
    3.1670    6.9130   -5.8280 H   0  0  0  0  0  0  0  0  0  0  0  0
    5.4510    6.2410   -5.4220 H   0  0  0  0  0  0  0  0  0  0  0  0
    4.9570    5.2360   -4.0380 H   0  0  0  0  0  0  0  0  0  0  0  0
  1  3  1  0  0  0  0
  1  5  1  0  0  0  0
  1  7  2  0  0  0  0
  1  8  2  0  0  0  0
  2  4  1  0  0  0  0
  2  6  1  0  0  0  0
  2 11  2  0  0  0  0
  2 12  2  0  0  0  0
  3 21  1  0  0  0  0
  3 22  1  0  0  0  0
  4 13  1  0  0  0  0
  4 26  1  0  0  0  0
  5 17  1  0  0  0  0
  5 18  2  0  0  0  0
  6 19  2  0  0  0  0
  6 20  1  0  0  0  0
  9 10  1  0  0  0  0
  9 13  1  0  0  0  0
  9 15  2  0  0  0  0
 10 14  1  0  0  0  0
 13 27  1  0  0  0  0
 13 28  1  0  0  0  0
 14 16  2  0  0  0  0
 14 29  1  0  0  0  0
 15 16  1  0  0  0  0
 15 30  1  0  0  0  0
 16 31  1  0  0  0  0
 17 20  2  0  0  0  0
 17 32  1  0  0  0  0
 18 19  1  0  0  0  0
 18 33  1  0  0  0  0
 19 34  1  0  0  0  0
 20 35  1  0  0  0  0
 21 24  1  0  0  0  0
 21 36  1  0  0  0  0
 21 37  1  0  0  0  0
 22 23  1  0  0  0  0
 22 38  1  0  0  0  0
 22 39  1  0  0  0  0
 23 25  1  0  0  0  0
 23 40  1  0  0  0  0
 23 41  1  0  0  0  0
 24 25  1  0  0  0  0
 24 42  1  0  0  0  0
 24 43  1  0  0  0  0
 25 44  1  0  0  0  0
 25 45  1  0  0  0  0
M  END
>  <$CLUSTER>
283

>  <INDEX>
137208

$$$$
Enamine T0508-5545
  MOE2020           3D

 33 35  0  0  0  0  0  0  0  0999 V2000
   -0.4400    0.1350   -0.6520 C   0  0  0  0  0  0  0  0  0  0  0  0
   -1.6040    0.9430   -0.7040 C   0  0  0  0  0  0  0  0  0  0  0  0
   -2.2940    1.1550   -1.9080 C   0  0  0  0  0  0  0  0  0  0  0  0
    4.2500   -1.7840    5.4460 C   0  0  0  0  0  0  0  0  0  0  0  0
    1.9850   -0.9910    1.9090 N   0  0  0  0  0  0  0  0  0  0  0  0
   -0.0140   -0.4420   -1.8730 C   0  0  0  0  0  0  0  0  0  0  0  0
   -2.0610    1.5190    0.4220 N   0  3  0  0  0  0  0  0  0  0  0  0
    0.2110   -0.0390    0.6050 C   0  0  0  0  0  0  0  0  0  0  0  0
    5.3750   -2.6030    5.3280 C   0  0  0  0  0  0  0  0  0  0  0  0
    3.4760   -1.4940    4.3200 C   0  0  0  0  0  0  0  0  0  0  0  0
    1.3730   -0.8310    0.7170 N   0  0  0  0  0  0  0  0  0  0  0  0
    5.7270   -3.1340    4.0860 C   0  0  0  0  0  0  0  0  0  0  0  0
   -1.8430    0.5710   -3.0870 C   0  0  0  0  0  0  0  0  0  0  0  0
    3.0340   -1.7420    1.8570 C   0  0  0  0  0  0  0  0  0  0  0  0
    3.8300   -2.0220    3.0940 C   0  0  0  0  0  0  0  0  0  0  0  0
    3.9850   -1.3200    6.6670 F   0  0  0  0  0  0  0  0  0  0  0  0
   -0.7050   -0.2260   -3.0700 C   0  0  0  0  0  0  0  0  0  0  0  0
   -1.4700    1.3720    1.6100 C   0  0  0  0  0  0  0  0  0  0  0  0
   -0.3300    0.5980    1.7330 C   0  0  0  0  0  0  0  0  0  0  0  0
    6.0590   -2.8290    6.4510 F   0  0  0  0  0  0  0  0  0  0  0  0
    4.9550   -2.8460    2.9580 C   0  0  0  0  0  0  0  0  0  0  0  0
   -2.6920    0.8410   -4.5370 Cl  0  0  0  0  0  0  0  0  0  0  0  0
   -3.1790    1.7740   -1.9190 H   0  0  0  0  0  0  0  0  0  0  0  0
    0.8680   -1.0650   -1.8800 H   0  0  0  0  0  0  0  0  0  0  0  0
   -2.8920    2.0910    0.3660 H   0  0  0  0  0  0  0  0  0  0  0  0
    2.6060   -0.8610    4.4080 H   0  0  0  0  0  0  0  0  0  0  0  0
    1.7510   -1.2830   -0.1030 H   0  0  0  0  0  0  0  0  0  0  0  0
    6.5970   -3.7680    3.9970 H   0  0  0  0  0  0  0  0  0  0  0  0
    3.3400   -2.1710    0.9140 H   0  0  0  0  0  0  0  0  0  0  0  0
   -0.3530   -0.6800   -3.9840 H   0  0  0  0  0  0  0  0  0  0  0  0
   -1.8840    1.8600    2.4800 H   0  0  0  0  0  0  0  0  0  0  0  0
    0.1440    0.4840    2.6970 H   0  0  0  0  0  0  0  0  0  0  0  0
    5.2220   -3.2530    1.9940 H   0  0  0  0  0  0  0  0  0  0  0  0
  1  2  2  0  0  0  0
  1  6  1  0  0  0  0
  1  8  1  0  0  0  0
  2  3  1  0  0  0  0
  2  7  1  0  0  0  0
  3 13  2  0  0  0  0
  3 23  1  0  0  0  0
  4  9  2  0  0  0  0
  4 10  1  0  0  0  0
  4 16  1  0  0  0  0
  5 11  1  0  0  0  0
  5 14  2  0  0  0  0
  6 17  2  0  0  0  0
  6 24  1  0  0  0  0
  7 18  2  0  0  0  0
  7 25  1  0  0  0  0
  8 11  1  0  0  0  0
  8 19  2  0  0  0  0
  9 12  1  0  0  0  0
  9 20  1  0  0  0  0
 10 15  2  0  0  0  0
 10 26  1  0  0  0  0
 11 27  1  0  0  0  0
 12 21  2  0  0  0  0
 12 28  1  0  0  0  0
 13 17  1  0  0  0  0
 13 22  1  0  0  0  0
 14 15  1  0  0  0  0
 14 29  1  0  0  0  0
 15 21  1  0  0  0  0
 17 30  1  0  0  0  0
 18 19  1  0  0  0  0
 18 31  1  0  0  0  0
 19 32  1  0  0  0  0
 21 33  1  0  0  0  0
M  CHG  1   7   1
M  END
>  <$CLUSTER>
284

>  <INDEX>
417948

$$$$
Asinex ASN 02255158
  MOE2020           3D

 54 57  0  0  0  0  0  0  0  0999 V2000
   -0.0330   -0.8140    0.1050 N   0  0  0  0  0  0  0  0  0  0  0  0
    0.7170   -0.2360   -0.9230 C   0  0  0  0  0  0  0  0  0  0  0  0
    1.4820   -1.1620   -1.4700 N   0  0  0  0  0  0  0  0  0  0  0  0
    0.3980   -2.1310    0.1350 C   0  0  0  0  0  0  0  0  0  0  0  0
    1.2980   -2.3360   -0.7990 N   0  0  0  0  0  0  0  0  0  0  0  0
   -1.0160   -0.1800    0.9120 C   0  0  0  0  0  0  0  0  0  0  0  0
   -0.3020   -3.3860    1.1130 S   0  0  0  0  0  0  0  0  0  0  0  0
    0.7560    1.1750   -1.3090 C   0  0  0  0  0  0  0  0  0  0  0  0
    2.1390   -4.7010    1.1980 C   0  0  0  0  0  0  0  0  0  0  0  0
    3.0310   -4.1910    0.3170 N   0  0  0  0  0  0  0  0  0  0  0  0
    2.4320   -4.9790    2.3560 O   0  0  0  0  0  0  0  0  0  0  0  0
   -1.9370    0.7000    0.3270 C   0  0  0  0  0  0  0  0  0  0  0  0
   -1.0650   -0.4150    2.2910 C   0  0  0  0  0  0  0  0  0  0  0  0
    0.7150   -4.8080    0.6600 C   0  0  0  0  0  0  0  0  0  0  0  0
    1.0080    2.1810   -0.3660 C   0  0  0  0  0  0  0  0  0  0  0  0
    0.5850    1.5300   -2.6540 C   0  0  0  0  0  0  0  0  0  0  0  0
    4.4060   -3.9290    0.4110 C   0  0  0  0  0  0  0  0  0  0  0  0
    0.8700    3.8640   -2.0950 C   0  0  0  0  0  0  0  0  0  0  0  0
   -2.9480    1.0920    2.4880 C   0  0  0  0  0  0  0  0  0  0  0  0
    1.0590    3.5200   -0.7580 C   0  0  0  0  0  0  0  0  0  0  0  0
    0.6370    2.8700   -3.0430 C   0  0  0  0  0  0  0  0  0  0  0  0
   -2.0310    0.2210    3.0740 C   0  0  0  0  0  0  0  0  0  0  0  0
   -2.9000    1.3310    1.1170 C   0  0  0  0  0  0  0  0  0  0  0  0
    0.9520    5.2130   -2.3560 O   0  0  0  0  0  0  0  0  0  0  0  0
   -3.9410    1.7740    3.1550 O   0  0  0  0  0  0  0  0  0  0  0  0
    5.1270   -4.1520    1.5880 C   0  0  0  0  0  0  0  0  0  0  0  0
    5.0810   -3.4190   -0.7090 C   0  0  0  0  0  0  0  0  0  0  0  0
   -4.0320    1.5670    4.5600 C   0  0  0  0  0  0  0  0  0  0  0  0
    0.7700    5.6190   -3.7080 C   0  0  0  0  0  0  0  0  0  0  0  0
    6.4970   -3.8700    1.6400 C   0  0  0  0  0  0  0  0  0  0  0  0
    6.4470   -3.1390   -0.6530 C   0  0  0  0  0  0  0  0  0  0  0  0
    7.1570   -3.3650    0.5230 C   0  0  0  0  0  0  0  0  0  0  0  0
    2.6300   -3.9540   -0.5790 H   0  0  0  0  0  0  0  0  0  0  0  0
   -1.9020    0.8900   -0.7360 H   0  0  0  0  0  0  0  0  0  0  0  0
   -0.3560   -1.0880    2.7500 H   0  0  0  0  0  0  0  0  0  0  0  0
    0.7560   -4.8770   -0.4270 H   0  0  0  0  0  0  0  0  0  0  0  0
    0.2550   -5.7100    1.0640 H   0  0  0  0  0  0  0  0  0  0  0  0
    1.1640    1.9190    0.6700 H   0  0  0  0  0  0  0  0  0  0  0  0
    0.4120    0.7630   -3.3940 H   0  0  0  0  0  0  0  0  0  0  0  0
    1.2450    4.2900   -0.0240 H   0  0  0  0  0  0  0  0  0  0  0  0
    0.4960    3.1360   -4.0800 H   0  0  0  0  0  0  0  0  0  0  0  0
   -2.0680    0.0370    4.1380 H   0  0  0  0  0  0  0  0  0  0  0  0
   -3.6100    2.0070    0.6630 H   0  0  0  0  0  0  0  0  0  0  0  0
    4.6250   -4.5430    2.4600 H   0  0  0  0  0  0  0  0  0  0  0  0
    4.5370   -3.2410   -1.6250 H   0  0  0  0  0  0  0  0  0  0  0  0
   -4.8530    2.1610    4.9620 H   0  0  0  0  0  0  0  0  0  0  0  0
   -3.0980    1.8700    5.0330 H   0  0  0  0  0  0  0  0  0  0  0  0
   -4.2150    0.5110    4.7610 H   0  0  0  0  0  0  0  0  0  0  0  0
    0.8590    6.7030   -3.7770 H   0  0  0  0  0  0  0  0  0  0  0  0
   -0.2190    5.3130   -4.0490 H   0  0  0  0  0  0  0  0  0  0  0  0
    1.5310    5.1520   -4.3330 H   0  0  0  0  0  0  0  0  0  0  0  0
    7.0460   -4.0450    2.5530 H   0  0  0  0  0  0  0  0  0  0  0  0
    6.9540   -2.7470   -1.5220 H   0  0  0  0  0  0  0  0  0  0  0  0
    8.2140   -3.1500    0.5690 H   0  0  0  0  0  0  0  0  0  0  0  0
  1  2  1  0  0  0  0
  1  4  1  0  0  0  0
  1  6  1  0  0  0  0
  2  3  2  0  0  0  0
  2  8  1  0  0  0  0
  3  5  1  0  0  0  0
  4  5  2  0  0  0  0
  4  7  1  0  0  0  0
  6 12  1  0  0  0  0
  6 13  2  0  0  0  0
  7 14  1  0  0  0  0
  8 15  2  0  0  0  0
  8 16  1  0  0  0  0
  9 10  1  0  0  0  0
  9 11  2  0  0  0  0
  9 14  1  0  0  0  0
 10 17  1  0  0  0  0
 10 33  1  0  0  0  0
 12 23  2  0  0  0  0
 12 34  1  0  0  0  0
 13 22  1  0  0  0  0
 13 35  1  0  0  0  0
 14 36  1  0  0  0  0
 14 37  1  0  0  0  0
 15 20  1  0  0  0  0
 15 38  1  0  0  0  0
 16 21  2  0  0  0  0
 16 39  1  0  0  0  0
 17 26  2  0  0  0  0
 17 27  1  0  0  0  0
 18 20  2  0  0  0  0
 18 21  1  0  0  0  0
 18 24  1  0  0  0  0
 19 22  2  0  0  0  0
 19 23  1  0  0  0  0
 19 25  1  0  0  0  0
 20 40  1  0  0  0  0
 21 41  1  0  0  0  0
 22 42  1  0  0  0  0
 23 43  1  0  0  0  0
 24 29  1  0  0  0  0
 25 28  1  0  0  0  0
 26 30  1  0  0  0  0
 26 44  1  0  0  0  0
 27 31  2  0  0  0  0
 27 45  1  0  0  0  0
 28 46  1  0  0  0  0
 28 47  1  0  0  0  0
 28 48  1  0  0  0  0
 29 49  1  0  0  0  0
 29 50  1  0  0  0  0
 29 51  1  0  0  0  0
 30 32  2  0  0  0  0
 30 52  1  0  0  0  0
 31 32  1  0  0  0  0
 31 53  1  0  0  0  0
 32 54  1  0  0  0  0
M  END
>  <$CLUSTER>
285

>  <INDEX>
126569

$$$$
Nanosyn NS64285
  MOE2020           3D

 32 34  0  0  0  0  0  0  0  0999 V2000
   -1.2920   -0.4770    0.8290 C   0  0  0  0  0  0  0  0  0  0  0  0
   -0.1470    0.1790    0.3870 C   0  0  0  0  0  0  0  0  0  0  0  0
   -1.6700   -1.8860   -0.0320 S   0  0  0  0  0  0  0  0  0  0  0  0
    0.4390   -0.5680   -0.7120 C   0  0  0  0  0  0  0  0  0  0  0  0
   -0.3190   -1.6820   -1.0390 C   0  0  0  0  0  0  0  0  0  0  0  0
    0.1610    1.3700    1.0840 C   0  0  0  0  0  0  0  0  0  0  0  0
   -2.1080   -0.1120    1.8330 N   0  0  0  0  0  0  0  0  0  0  0  0
   -0.6390    1.7780    2.1010 N   0  0  0  0  0  0  0  0  0  0  0  0
   -1.7050    1.0240    2.4150 C   0  0  0  0  0  0  0  0  0  0  0  0
    2.3990    3.5030    4.5190 C   0  0  0  0  0  0  0  0  0  0  0  0
    2.2530    2.6320    3.2940 C   0  0  0  0  0  0  0  0  0  0  0  0
    2.8400    2.8500    5.5510 O   0  0  0  0  0  0  0  0  0  0  0  0
    1.5480    2.3740    0.6210 S   0  0  0  0  0  0  0  0  0  0  0  0
    1.7350    3.4150    2.0930 C   0  0  0  0  0  0  0  0  0  0  0  0
    2.1050    4.7180    4.4630 O   0  5  0  0  0  0  0  0  0  0  0  0
    1.6850   -0.2340   -1.4890 C   0  0  0  0  0  0  0  0  0  0  0  0
   -0.0090   -2.6600   -2.1310 C   0  0  0  0  0  0  0  0  0  0  0  0
    2.1650   -1.3960   -2.3740 C   0  0  0  0  0  0  0  0  0  0  0  0
    1.0040   -2.0650   -3.1150 C   0  0  0  0  0  0  0  0  0  0  0  0
   -2.3100    1.3770    3.2370 H   0  0  0  0  0  0  0  0  0  0  0  0
    1.5530    1.8260    3.5170 H   0  0  0  0  0  0  0  0  0  0  0  0
    3.2260    2.2090    3.0450 H   0  0  0  0  0  0  0  0  0  0  0  0
    2.4380    4.2170    1.8680 H   0  0  0  0  0  0  0  0  0  0  0  0
    0.7650    3.8430    2.3450 H   0  0  0  0  0  0  0  0  0  0  0  0
    2.4780    0.0180   -0.7840 H   0  0  0  0  0  0  0  0  0  0  0  0
    1.4780    0.6260   -2.1260 H   0  0  0  0  0  0  0  0  0  0  0  0
   -0.9270   -2.9030   -2.6650 H   0  0  0  0  0  0  0  0  0  0  0  0
    0.4070   -3.5670   -1.6920 H   0  0  0  0  0  0  0  0  0  0  0  0
    2.6570   -2.1380   -1.7450 H   0  0  0  0  0  0  0  0  0  0  0  0
    2.8760   -1.0120   -3.1060 H   0  0  0  0  0  0  0  0  0  0  0  0
    0.5030   -1.3220   -3.7360 H   0  0  0  0  0  0  0  0  0  0  0  0
    1.3970   -2.8620   -3.7470 H   0  0  0  0  0  0  0  0  0  0  0  0
  1  2  2  0  0  0  0
  1  3  1  0  0  0  0
  1  7  1  0  0  0  0
  2  4  1  0  0  0  0
  2  6  1  0  0  0  0
  3  5  1  0  0  0  0
  4  5  2  0  0  0  0
  4 16  1  0  0  0  0
  5 17  1  0  0  0  0
  6  8  2  0  0  0  0
  6 13  1  0  0  0  0
  7  9  2  0  0  0  0
  8  9  1  0  0  0  0
  9 20  1  0  0  0  0
 10 11  1  0  0  0  0
 10 12  2  0  0  0  0
 10 15  1  0  0  0  0
 11 14  1  0  0  0  0
 11 21  1  0  0  0  0
 11 22  1  0  0  0  0
 13 14  1  0  0  0  0
 14 23  1  0  0  0  0
 14 24  1  0  0  0  0
 16 18  1  0  0  0  0
 16 25  1  0  0  0  0
 16 26  1  0  0  0  0
 17 19  1  0  0  0  0
 17 27  1  0  0  0  0
 17 28  1  0  0  0  0
 18 19  1  0  0  0  0
 18 29  1  0  0  0  0
 18 30  1  0  0  0  0
 19 31  1  0  0  0  0
 19 32  1  0  0  0  0
M  CHG  1  15  -1
M  END
>  <$CLUSTER>
286

>  <INDEX>
566775

$$$$
Asinex BAS 04385923
  MOE2020           3D

 51 52  0  0  0  0  0  0  0  0999 V2000
   -1.2870   -0.9630    3.1830 N   0  0  0  0  0  0  0  0  0  0  0  0
   -0.2710   -1.4930    3.9350 C   0  0  0  0  0  0  0  0  0  0  0  0
   -2.6090   -2.7620    3.8970 N   0  0  0  0  0  0  0  0  0  0  0  0
   -0.3580   -2.6100    4.6610 C   0  0  0  0  0  0  0  0  0  0  0  0
   -2.3720   -1.6360    3.2210 C   0  0  0  0  0  0  0  0  0  0  0  0
   -1.6360   -3.3310    4.6590 C   0  0  0  0  0  0  0  0  0  0  0  0
   -2.1900    0.0790    0.4290 C   0  0  0  0  0  0  0  0  0  0  0  0
   -3.8370   -1.1020    2.2950 S   0  0  0  0  0  0  0  0  0  0  0  0
   -1.7770   -4.3640    5.3070 O   0  0  0  0  0  0  0  0  0  0  0  0
   -0.8850    0.1640    0.8990 N   0  0  0  0  0  0  0  0  0  0  0  0
    2.7720   -0.5210   -1.0950 C   0  0  0  0  0  0  0  0  0  0  0  0
   -2.5690   -0.2210   -0.6980 O   0  0  0  0  0  0  0  0  0  0  0  0
    0.9040   -0.7650    3.9040 O   0  0  0  0  0  0  0  0  0  0  0  0
    1.5800   -0.6750   -1.8000 C   0  0  0  0  0  0  0  0  0  0  0  0
    2.7390   -0.1470    0.2440 C   0  0  0  0  0  0  0  0  0  0  0  0
   -3.1820    0.4170    1.5140 C   0  0  0  0  0  0  0  0  0  0  0  0
    0.3070   -0.0790    0.1780 C   0  0  0  0  0  0  0  0  0  0  0  0
    0.7860   -3.1740    5.4950 C   0  0  0  0  0  0  0  0  0  0  0  0
    4.1040   -0.7700   -1.8160 C   0  0  0  0  0  0  0  0  0  0  0  0
    1.5140    0.0730    0.8770 C   0  0  0  0  0  0  0  0  0  0  0  0
    0.3520   -0.4560   -1.1680 C   0  0  0  0  0  0  0  0  0  0  0  0
    4.8780   -1.9310   -1.1850 C   0  0  0  0  0  0  0  0  0  0  0  0
    4.9640    0.4970   -1.8620 C   0  0  0  0  0  0  0  0  0  0  0  0
    1.5220   -4.3050    4.7880 C   0  0  0  0  0  0  0  0  0  0  0  0
    2.6600   -4.8570    5.6340 C   0  0  0  0  0  0  0  0  0  0  0  0
    3.3910   -5.9840    4.9230 C   0  0  0  0  0  0  0  0  0  0  0  0
   -3.5190   -3.1960    3.8420 H   0  0  0  0  0  0  0  0  0  0  0  0
   -0.7750    0.4300    1.8670 H   0  0  0  0  0  0  0  0  0  0  0  0
    1.6190   -1.1260    4.4330 H   0  0  0  0  0  0  0  0  0  0  0  0
    1.6050   -0.9650   -2.8400 H   0  0  0  0  0  0  0  0  0  0  0  0
    3.6610   -0.0270    0.7940 H   0  0  0  0  0  0  0  0  0  0  0  0
   -4.0080    0.9800    1.0800 H   0  0  0  0  0  0  0  0  0  0  0  0
   -2.6880    1.0240    2.2730 H   0  0  0  0  0  0  0  0  0  0  0  0
    0.3810   -3.5540    6.4330 H   0  0  0  0  0  0  0  0  0  0  0  0
    1.4950   -2.3720    5.7030 H   0  0  0  0  0  0  0  0  0  0  0  0
    3.8640   -1.0480   -2.8420 H   0  0  0  0  0  0  0  0  0  0  0  0
    1.4950    0.3640    1.9170 H   0  0  0  0  0  0  0  0  0  0  0  0
   -0.5670   -0.5790   -1.7220 H   0  0  0  0  0  0  0  0  0  0  0  0
    5.1320   -1.6810   -0.1550 H   0  0  0  0  0  0  0  0  0  0  0  0
    5.7920   -2.1090   -1.7520 H   0  0  0  0  0  0  0  0  0  0  0  0
    4.2610   -2.8290   -1.1990 H   0  0  0  0  0  0  0  0  0  0  0  0
    5.2200    0.8000   -0.8470 H   0  0  0  0  0  0  0  0  0  0  0  0
    4.4070    1.2970   -2.3500 H   0  0  0  0  0  0  0  0  0  0  0  0
    5.8770    0.2960   -2.4220 H   0  0  0  0  0  0  0  0  0  0  0  0
    1.9310   -3.9280    3.8510 H   0  0  0  0  0  0  0  0  0  0  0  0
    0.8160   -5.1090    4.5790 H   0  0  0  0  0  0  0  0  0  0  0  0
    2.2520   -5.2360    6.5710 H   0  0  0  0  0  0  0  0  0  0  0  0
    3.3670   -4.0540    5.8430 H   0  0  0  0  0  0  0  0  0  0  0  0
    2.6920   -6.7920    4.7090 H   0  0  0  0  0  0  0  0  0  0  0  0
    4.1930   -6.3560    5.5610 H   0  0  0  0  0  0  0  0  0  0  0  0
    3.8120   -5.6120    3.9890 H   0  0  0  0  0  0  0  0  0  0  0  0
  1  2  1  0  0  0  0
  1  5  2  0  0  0  0
  2  4  2  0  0  0  0
  2 13  1  0  0  0  0
  3  5  1  0  0  0  0
  3  6  1  0  0  0  0
  3 27  1  0  0  0  0
  4  6  1  0  0  0  0
  4 18  1  0  0  0  0
  5  8  1  0  0  0  0
  6  9  2  0  0  0  0
  7 10  1  0  0  0  0
  7 12  2  0  0  0  0
  7 16  1  0  0  0  0
  8 16  1  0  0  0  0
 10 17  1  0  0  0  0
 10 28  1  0  0  0  0
 11 14  1  0  0  0  0
 11 15  2  0  0  0  0
 11 19  1  0  0  0  0
 13 29  1  0  0  0  0
 14 21  2  0  0  0  0
 14 30  1  0  0  0  0
 15 20  1  0  0  0  0
 15 31  1  0  0  0  0
 16 32  1  0  0  0  0
 16 33  1  0  0  0  0
 17 20  2  0  0  0  0
 17 21  1  0  0  0  0
 18 24  1  0  0  0  0
 18 34  1  0  0  0  0
 18 35  1  0  0  0  0
 19 22  1  0  0  0  0
 19 23  1  0  0  0  0
 19 36  1  0  0  0  0
 20 37  1  0  0  0  0
 21 38  1  0  0  0  0
 22 39  1  0  0  0  0
 22 40  1  0  0  0  0
 22 41  1  0  0  0  0
 23 42  1  0  0  0  0
 23 43  1  0  0  0  0
 23 44  1  0  0  0  0
 24 25  1  0  0  0  0
 24 45  1  0  0  0  0
 24 46  1  0  0  0  0
 25 26  1  0  0  0  0
 25 47  1  0  0  0  0
 25 48  1  0  0  0  0
 26 49  1  0  0  0  0
 26 50  1  0  0  0  0
 26 51  1  0  0  0  0
M  END
>  <$CLUSTER>
287

>  <INDEX>
180795

$$$$
Asinex BAS 03373649
  MOE2020           3D

 49 52  0  0  0  0  0  0  0  0999 V2000
    0.5740   -0.1250   -0.4110 C   0  0  0  0  0  0  0  0  0  0  0  0
    0.1310   -1.3370   -0.9200 C   0  0  0  0  0  0  0  0  0  0  0  0
    0.8260   -2.1960   -1.7170 N   0  0  0  0  0  0  0  0  0  0  0  0
    1.9290    0.3040   -0.7340 C   0  0  0  0  0  0  0  0  0  0  0  0
    2.5970   -0.6070   -1.5500 N   0  0  0  0  0  0  0  0  0  0  0  0
    2.0260   -1.7900   -1.9940 C   0  0  0  0  0  0  0  0  0  0  0  0
   -1.4680   -1.6840   -0.4270 S   0  0  0  0  0  0  0  0  0  0  0  0
   -0.4200    0.5260    0.3860 C   0  0  0  0  0  0  0  0  0  0  0  0
   -1.5710   -0.2370    0.4610 C   0  0  0  0  0  0  0  0  0  0  0  0
    2.9630   -2.8620   -3.0400 S   0  0  0  0  0  0  0  0  0  0  0  0
    2.4260    1.3490   -0.3300 O   0  0  0  0  0  0  0  0  0  0  0  0
    0.7330   -3.2370   -4.6490 C   0  0  0  0  0  0  0  0  0  0  0  0
   -0.3970   -2.7500   -4.0850 N   0  0  0  0  0  0  0  0  0  0  0  0
    4.0280   -0.2290   -1.9000 C   0  0  0  0  0  0  0  0  0  0  0  0
    1.0220   -3.0510   -5.8260 O   0  0  0  0  0  0  0  0  0  0  0  0
    1.6660   -3.9480   -3.6740 C   0  0  0  0  0  0  0  0  0  0  0  0
    4.0880    0.5920   -3.1810 C   0  0  0  0  0  0  0  0  0  0  0  0
    4.6370    1.7810   -3.2660 C   0  0  0  0  0  0  0  0  0  0  0  0
   -1.4890   -2.0460   -4.6150 C   0  0  0  0  0  0  0  0  0  0  0  0
   -3.7040   -0.6230   -5.5950 C   0  0  0  0  0  0  0  0  0  0  0  0
   -0.2950    1.8370    1.1050 C   0  0  0  0  0  0  0  0  0  0  0  0
   -2.8130    0.1450    1.2050 C   0  0  0  0  0  0  0  0  0  0  0  0
   -4.7870    0.0490   -5.9840 F   0  0  0  0  0  0  0  0  0  0  0  0
   -1.5490   -1.6680   -5.9600 C   0  0  0  0  0  0  0  0  0  0  0  0
   -2.5530   -1.7020   -3.7680 C   0  0  0  0  0  0  0  0  0  0  0  0
   -2.6530   -0.9600   -6.4460 C   0  0  0  0  0  0  0  0  0  0  0  0
   -3.6540   -0.9940   -4.2560 C   0  0  0  0  0  0  0  0  0  0  0  0
   -1.6580    2.3760    1.5670 C   0  0  0  0  0  0  0  0  0  0  0  0
   -2.5190    1.2760    2.2010 C   0  0  0  0  0  0  0  0  0  0  0  0
   -0.4680   -2.9270   -3.0930 H   0  0  0  0  0  0  0  0  0  0  0  0
    4.6130   -1.1390   -2.0340 H   0  0  0  0  0  0  0  0  0  0  0  0
    4.4500    0.3570   -1.0830 H   0  0  0  0  0  0  0  0  0  0  0  0
    1.0780   -4.3170   -2.8340 H   0  0  0  0  0  0  0  0  0  0  0  0
    2.1340   -4.7880   -4.1870 H   0  0  0  0  0  0  0  0  0  0  0  0
    3.6520    0.1700   -4.0740 H   0  0  0  0  0  0  0  0  0  0  0  0
    4.6430    2.3070   -4.2090 H   0  0  0  0  0  0  0  0  0  0  0  0
    5.0830    2.2340   -2.3930 H   0  0  0  0  0  0  0  0  0  0  0  0
    0.1610    2.5640    0.4330 H   0  0  0  0  0  0  0  0  0  0  0  0
    0.3430    1.6990    1.9780 H   0  0  0  0  0  0  0  0  0  0  0  0
   -3.1870   -0.7230    1.7480 H   0  0  0  0  0  0  0  0  0  0  0  0
   -3.5680    0.4810    0.4940 H   0  0  0  0  0  0  0  0  0  0  0  0
   -0.7390   -1.9240   -6.6270 H   0  0  0  0  0  0  0  0  0  0  0  0
   -2.5210   -1.9880   -2.7270 H   0  0  0  0  0  0  0  0  0  0  0  0
   -2.6910   -0.6730   -7.4860 H   0  0  0  0  0  0  0  0  0  0  0  0
   -4.4660   -0.7350   -3.5930 H   0  0  0  0  0  0  0  0  0  0  0  0
   -2.1860    2.7850    0.7060 H   0  0  0  0  0  0  0  0  0  0  0  0
   -1.4950    3.1640    2.3020 H   0  0  0  0  0  0  0  0  0  0  0  0
   -1.9890    0.8630    3.0590 H   0  0  0  0  0  0  0  0  0  0  0  0
   -3.4620    1.7110    2.5310 H   0  0  0  0  0  0  0  0  0  0  0  0
  1  2  2  0  0  0  0
  1  4  1  0  0  0  0
  1  8  1  0  0  0  0
  2  3  1  0  0  0  0
  2  7  1  0  0  0  0
  3  6  2  0  0  0  0
  4  5  1  0  0  0  0
  4 11  2  0  0  0  0
  5  6  1  0  0  0  0
  5 14  1  0  0  0  0
  6 10  1  0  0  0  0
  7  9  1  0  0  0  0
  8  9  2  0  0  0  0
  8 21  1  0  0  0  0
  9 22  1  0  0  0  0
 10 16  1  0  0  0  0
 12 13  1  0  0  0  0
 12 15  2  0  0  0  0
 12 16  1  0  0  0  0
 13 19  1  0  0  0  0
 13 30  1  0  0  0  0
 14 17  1  0  0  0  0
 14 31  1  0  0  0  0
 14 32  1  0  0  0  0
 16 33  1  0  0  0  0
 16 34  1  0  0  0  0
 17 18  2  0  0  0  0
 17 35  1  0  0  0  0
 18 36  1  0  0  0  0
 18 37  1  0  0  0  0
 19 24  2  0  0  0  0
 19 25  1  0  0  0  0
 20 23  1  0  0  0  0
 20 26  2  0  0  0  0
 20 27  1  0  0  0  0
 21 28  1  0  0  0  0
 21 38  1  0  0  0  0
 21 39  1  0  0  0  0
 22 29  1  0  0  0  0
 22 40  1  0  0  0  0
 22 41  1  0  0  0  0
 24 26  1  0  0  0  0
 24 42  1  0  0  0  0
 25 27  2  0  0  0  0
 25 43  1  0  0  0  0
 26 44  1  0  0  0  0
 27 45  1  0  0  0  0
 28 29  1  0  0  0  0
 28 46  1  0  0  0  0
 28 47  1  0  0  0  0
 29 48  1  0  0  0  0
 29 49  1  0  0  0  0
M  END
>  <$CLUSTER>
288

>  <INDEX>
179490

$$$$
Asinex BAS 05288650
  MOE2020           3D

 48 50  0  0  0  0  0  0  0  0999 V2000
    8.4220   -0.4790    1.8470 S   0  0  0  0  0  0  0  0  0  0  0  0
    1.5350   -0.4930    0.7050 C   0  0  0  0  0  0  0  0  0  0  0  0
    6.7230   -0.2810    1.4300 C   0  0  0  0  0  0  0  0  0  0  0  0
    9.0590   -1.2450    0.5020 N   0  0  0  0  0  0  0  0  0  0  0  0
    0.2820    0.0870    0.2080 C   0  0  0  0  0  0  0  0  0  0  0  0
    2.6490    0.2560    0.4980 N   0  0  0  0  0  0  0  0  0  0  0  0
    6.3040    0.8670    0.7590 C   0  0  0  0  0  0  0  0  0  0  0  0
    4.0070    0.0630    0.8140 C   0  0  0  0  0  0  0  0  0  0  0  0
    4.9500    1.0480    0.4460 C   0  0  0  0  0  0  0  0  0  0  0  0
    9.0330    0.8370    1.9320 O   0  0  0  0  0  0  0  0  0  0  0  0
    8.5220   -1.3990    2.9660 O   0  0  0  0  0  0  0  0  0  0  0  0
   -0.5870   -0.6310   -0.6140 C   0  0  0  0  0  0  0  0  0  0  0  0
    1.5540   -1.5730    1.2860 O   0  0  0  0  0  0  0  0  0  0  0  0
    5.7970   -1.2530    1.7930 C   0  0  0  0  0  0  0  0  0  0  0  0
    4.4440   -1.0840    1.4880 C   0  0  0  0  0  0  0  0  0  0  0  0
   -0.2390   -2.2200   -1.1950 Cl  0  0  0  0  0  0  0  0  0  0  0  0
    4.4460    2.1450   -0.2110 O   0  0  0  0  0  0  0  0  0  0  0  0
   -0.0490    1.3910    0.6060 C   0  0  0  0  0  0  0  0  0  0  0  0
    8.6530   -2.6530    0.2460 C   0  0  0  0  0  0  0  0  0  0  0  0
    9.1530   -0.4690   -0.7630 C   0  0  0  0  0  0  0  0  0  0  0  0
   -1.7860   -0.0430   -1.0370 C   0  0  0  0  0  0  0  0  0  0  0  0
    5.3670    3.1570   -0.5970 C   0  0  0  0  0  0  0  0  0  0  0  0
   -1.2440    1.9710    0.1810 C   0  0  0  0  0  0  0  0  0  0  0  0
    9.5580   -3.3490   -0.7650 C   0  0  0  0  0  0  0  0  0  0  0  0
   10.0660   -1.1300   -1.7900 C   0  0  0  0  0  0  0  0  0  0  0  0
   -2.1130    1.2540   -0.6390 C   0  0  0  0  0  0  0  0  0  0  0  0
    9.6600   -2.5700   -2.0690 C   0  0  0  0  0  0  0  0  0  0  0  0
    2.4660    1.1270    0.0210 H   0  0  0  0  0  0  0  0  0  0  0  0
    7.0260    1.6200    0.4790 H   0  0  0  0  0  0  0  0  0  0  0  0
    6.1250   -2.1410    2.3120 H   0  0  0  0  0  0  0  0  0  0  0  0
    3.7310   -1.8430    1.7740 H   0  0  0  0  0  0  0  0  0  0  0  0
    0.6230    1.9470    1.2430 H   0  0  0  0  0  0  0  0  0  0  0  0
    7.6330   -2.6580   -0.1370 H   0  0  0  0  0  0  0  0  0  0  0  0
    8.6910   -3.2040    1.1860 H   0  0  0  0  0  0  0  0  0  0  0  0
    9.5440    0.5230   -0.5360 H   0  0  0  0  0  0  0  0  0  0  0  0
    8.1550   -0.3770   -1.1910 H   0  0  0  0  0  0  0  0  0  0  0  0
   -2.4600   -0.5960   -1.6740 H   0  0  0  0  0  0  0  0  0  0  0  0
    4.8330    3.9600   -1.1040 H   0  0  0  0  0  0  0  0  0  0  0  0
    6.1110    2.7330   -1.2710 H   0  0  0  0  0  0  0  0  0  0  0  0
    5.8630    3.5540    0.2890 H   0  0  0  0  0  0  0  0  0  0  0  0
   -1.4960    2.9760    0.4870 H   0  0  0  0  0  0  0  0  0  0  0  0
    9.1530   -4.3390   -0.9770 H   0  0  0  0  0  0  0  0  0  0  0  0
   10.5550   -3.4480   -0.3350 H   0  0  0  0  0  0  0  0  0  0  0  0
   11.0880   -1.1190   -1.4110 H   0  0  0  0  0  0  0  0  0  0  0  0
   10.0180   -0.5640   -2.7200 H   0  0  0  0  0  0  0  0  0  0  0  0
   -3.0400    1.7020   -0.9670 H   0  0  0  0  0  0  0  0  0  0  0  0
    8.6930   -2.5810   -2.5710 H   0  0  0  0  0  0  0  0  0  0  0  0
   10.4080   -3.0370   -2.7100 H   0  0  0  0  0  0  0  0  0  0  0  0
  1  3  1  0  0  0  0
  1  4  1  0  0  0  0
  1 10  2  0  0  0  0
  1 11  2  0  0  0  0
  2  5  1  0  0  0  0
  2  6  1  0  0  0  0
  2 13  2  0  0  0  0
  3  7  1  0  0  0  0
  3 14  2  0  0  0  0
  4 19  1  0  0  0  0
  4 20  1  0  0  0  0
  5 12  2  0  0  0  0
  5 18  1  0  0  0  0
  6  8  1  0  0  0  0
  6 28  1  0  0  0  0
  7  9  2  0  0  0  0
  7 29  1  0  0  0  0
  8  9  1  0  0  0  0
  8 15  2  0  0  0  0
  9 17  1  0  0  0  0
 12 16  1  0  0  0  0
 12 21  1  0  0  0  0
 14 15  1  0  0  0  0
 14 30  1  0  0  0  0
 15 31  1  0  0  0  0
 17 22  1  0  0  0  0
 18 23  2  0  0  0  0
 18 32  1  0  0  0  0
 19 24  1  0  0  0  0
 19 33  1  0  0  0  0
 19 34  1  0  0  0  0
 20 25  1  0  0  0  0
 20 35  1  0  0  0  0
 20 36  1  0  0  0  0
 21 26  2  0  0  0  0
 21 37  1  0  0  0  0
 22 38  1  0  0  0  0
 22 39  1  0  0  0  0
 22 40  1  0  0  0  0
 23 26  1  0  0  0  0
 23 41  1  0  0  0  0
 24 27  1  0  0  0  0
 24 42  1  0  0  0  0
 24 43  1  0  0  0  0
 25 27  1  0  0  0  0
 25 44  1  0  0  0  0
 25 45  1  0  0  0  0
 26 46  1  0  0  0  0
 27 47  1  0  0  0  0
 27 48  1  0  0  0  0
M  END
>  <$CLUSTER>
289

>  <INDEX>
181684

$$$$
InterBioScreen STOCK4S-99950
  MOE2020           3D

 47 49  0  0  0  0  0  0  0  0999 V2000
   -0.2320    1.1310   -0.1890 N   0  0  0  0  0  0  0  0  0  0  0  0
   -0.1780   -0.2260   -0.4420 C   0  0  0  0  0  0  0  0  0  0  0  0
   -0.9970   -0.5010   -1.4410 N   0  0  0  0  0  0  0  0  0  0  0  0
   -1.1030    1.6410   -1.1170 C   0  0  0  0  0  0  0  0  0  0  0  0
   -1.5670    0.6720   -1.8720 N   0  0  0  0  0  0  0  0  0  0  0  0
    0.6090   -1.2100    0.2900 C   0  0  0  0  0  0  0  0  0  0  0  0
   -1.5250    3.3170   -1.2260 S   0  0  0  0  0  0  0  0  0  0  0  0
   -4.0130    2.6350   -2.2490 C   0  0  0  0  0  0  0  0  0  0  0  0
   -4.0880    1.3280   -2.5920 N   0  0  0  0  0  0  0  0  0  0  0  0
   -0.0390   -2.1950    1.0470 C   0  0  0  0  0  0  0  0  0  0  0  0
   -5.1030    0.3700   -2.4410 C   0  0  0  0  0  0  0  0  0  0  0  0
    0.4760    1.8490    0.8560 C   0  0  0  0  0  0  0  0  0  0  0  0
   -6.3120    0.6600   -1.8010 C   0  0  0  0  0  0  0  0  0  0  0  0
   -4.8990    3.2130   -1.6290 O   0  0  0  0  0  0  0  0  0  0  0  0
   -2.6890    3.3030   -2.6070 C   0  0  0  0  0  0  0  0  0  0  0  0
   -0.3070    1.8950    2.1570 C   0  0  0  0  0  0  0  0  0  0  0  0
    0.1390    1.4600    3.3220 C   0  0  0  0  0  0  0  0  0  0  0  0
   -7.2940   -0.3280   -1.6670 C   0  0  0  0  0  0  0  0  0  0  0  0
    0.7030   -3.1530    1.7400 C   0  0  0  0  0  0  0  0  0  0  0  0
   -8.4700   -0.1190   -1.0690 F   0  0  0  0  0  0  0  0  0  0  0  0
    2.0080   -1.2120    0.2180 C   0  0  0  0  0  0  0  0  0  0  0  0
   -0.0570   -4.0560    2.4530 O   0  0  0  0  0  0  0  0  0  0  0  0
    2.7470   -2.1720    0.9120 C   0  0  0  0  0  0  0  0  0  0  0  0
   -5.8790   -1.9080   -2.8060 C   0  0  0  0  0  0  0  0  0  0  0  0
   -4.8960   -0.9240   -2.9420 C   0  0  0  0  0  0  0  0  0  0  0  0
   -7.0780   -1.6090   -2.1670 C   0  0  0  0  0  0  0  0  0  0  0  0
    2.0950   -3.1400    1.6740 C   0  0  0  0  0  0  0  0  0  0  0  0
    0.6490   -5.0580    3.1770 C   0  0  0  0  0  0  0  0  0  0  0  0
   -3.2560    0.9750   -3.0420 H   0  0  0  0  0  0  0  0  0  0  0  0
   -1.1180   -2.2130    1.0950 H   0  0  0  0  0  0  0  0  0  0  0  0
    0.6560    2.8700    0.5190 H   0  0  0  0  0  0  0  0  0  0  0  0
    1.4290    1.3530    1.0380 H   0  0  0  0  0  0  0  0  0  0  0  0
   -6.4890    1.6510   -1.4090 H   0  0  0  0  0  0  0  0  0  0  0  0
   -2.2380    2.7620   -3.4390 H   0  0  0  0  0  0  0  0  0  0  0  0
   -2.8870    4.3320   -2.9080 H   0  0  0  0  0  0  0  0  0  0  0  0
   -1.3020    2.3140    2.1270 H   0  0  0  0  0  0  0  0  0  0  0  0
   -0.4860    1.5310    4.2000 H   0  0  0  0  0  0  0  0  0  0  0  0
    1.1280    1.0330    3.3960 H   0  0  0  0  0  0  0  0  0  0  0  0
    2.5170   -0.4680   -0.3770 H   0  0  0  0  0  0  0  0  0  0  0  0
    3.8260   -2.1650    0.8580 H   0  0  0  0  0  0  0  0  0  0  0  0
   -5.7080   -2.9000   -3.1970 H   0  0  0  0  0  0  0  0  0  0  0  0
   -3.9670   -1.1620   -3.4380 H   0  0  0  0  0  0  0  0  0  0  0  0
   -7.8390   -2.3680   -2.0590 H   0  0  0  0  0  0  0  0  0  0  0  0
    2.6680   -3.8800    2.2130 H   0  0  0  0  0  0  0  0  0  0  0  0
   -0.0630   -5.7020    3.6930 H   0  0  0  0  0  0  0  0  0  0  0  0
    1.3060   -4.5840    3.9070 H   0  0  0  0  0  0  0  0  0  0  0  0
    1.2440   -5.6540    2.4860 H   0  0  0  0  0  0  0  0  0  0  0  0
  1  2  1  0  0  0  0
  1  4  1  0  0  0  0
  1 12  1  0  0  0  0
  2  3  2  0  0  0  0
  2  6  1  0  0  0  0
  3  5  1  0  0  0  0
  4  5  2  0  0  0  0
  4  7  1  0  0  0  0
  6 10  2  0  0  0  0
  6 21  1  0  0  0  0
  7 15  1  0  0  0  0
  8  9  1  0  0  0  0
  8 14  2  0  0  0  0
  8 15  1  0  0  0  0
  9 11  1  0  0  0  0
  9 29  1  0  0  0  0
 10 19  1  0  0  0  0
 10 30  1  0  0  0  0
 11 13  2  0  0  0  0
 11 25  1  0  0  0  0
 12 16  1  0  0  0  0
 12 31  1  0  0  0  0
 12 32  1  0  0  0  0
 13 18  1  0  0  0  0
 13 33  1  0  0  0  0
 15 34  1  0  0  0  0
 15 35  1  0  0  0  0
 16 17  2  0  0  0  0
 16 36  1  0  0  0  0
 17 37  1  0  0  0  0
 17 38  1  0  0  0  0
 18 20  1  0  0  0  0
 18 26  2  0  0  0  0
 19 22  1  0  0  0  0
 19 27  2  0  0  0  0
 21 23  2  0  0  0  0
 21 39  1  0  0  0  0
 22 28  1  0  0  0  0
 23 27  1  0  0  0  0
 23 40  1  0  0  0  0
 24 25  2  0  0  0  0
 24 26  1  0  0  0  0
 24 41  1  0  0  0  0
 25 42  1  0  0  0  0
 26 43  1  0  0  0  0
 27 44  1  0  0  0  0
 28 45  1  0  0  0  0
 28 46  1  0  0  0  0
 28 47  1  0  0  0  0
M  END
>  <$CLUSTER>
290

>  <INDEX>
363893

$$$$
Asinex BAS 06989506
  MOE2020           3D

 36 37  0  0  0  0  0  0  0  0999 V2000
    2.0020   -1.5800   -0.0950 C   0  0  0  0  0  0  0  0  0  0  0  0
    3.8250   -2.7780   -0.5760 N   0  0  0  0  0  0  0  0  0  0  0  0
    2.9550   -2.4610    0.3970 C   0  0  0  0  0  0  0  0  0  0  0  0
    3.4050   -2.0760   -1.6370 N   0  0  0  0  0  0  0  0  0  0  0  0
    2.2950   -1.3250   -1.3990 C   0  0  0  0  0  0  0  0  0  0  0  0
    0.8230   -0.9940    0.6200 C   0  0  0  0  0  0  0  0  0  0  0  0
   -0.0320   -0.0570    0.1590 C   0  0  0  0  0  0  0  0  0  0  0  0
   -1.9840    0.7410    1.6720 N   0  0  0  0  0  0  0  0  0  0  0  0
    0.2020    0.9870   -2.2040 N   0  0  0  0  0  0  0  0  0  0  0  0
   -1.1090    0.3850    0.9910 C   0  0  0  0  0  0  0  0  0  0  0  0
    0.0970    0.5180   -1.1430 C   0  0  0  0  0  0  0  0  0  0  0  0
    4.5100   -3.3610   -4.9880 C   0  0  0  0  0  0  0  0  0  0  0  0
    3.1120   -3.0330    1.7310 C   0  0  0  0  0  0  0  0  0  0  0  0
    3.7130   -3.3830   -3.7100 C   0  0  0  0  0  0  0  0  0  0  0  0
    4.1290   -2.1710   -2.8960 C   0  0  0  0  0  0  0  0  0  0  0  0
    5.6290   -3.9580   -4.9650 O   0  0  0  0  0  0  0  0  0  0  0  0
    3.2430   -4.4210    1.8900 C   0  0  0  0  0  0  0  0  0  0  0  0
    3.1540   -2.2070    2.8610 C   0  0  0  0  0  0  0  0  0  0  0  0
    3.9690   -2.7820   -5.9790 O   0  5  0  0  0  0  0  0  0  0  0  0
    3.3120   -2.7630    4.1330 C   0  0  0  0  0  0  0  0  0  0  0  0
    3.4020   -4.9710    3.1630 C   0  0  0  0  0  0  0  0  0  0  0  0
    3.4350   -4.1430    4.2830 C   0  0  0  0  0  0  0  0  0  0  0  0
    3.6020   -4.7310    5.6460 C   0  0  0  0  0  0  0  0  0  0  0  0
    1.7690   -0.6780   -2.0850 H   0  0  0  0  0  0  0  0  0  0  0  0
    0.6360   -1.3630    1.6180 H   0  0  0  0  0  0  0  0  0  0  0  0
    2.6470   -3.3340   -3.9340 H   0  0  0  0  0  0  0  0  0  0  0  0
    3.9250   -4.2960   -3.1540 H   0  0  0  0  0  0  0  0  0  0  0  0
    3.9340   -1.2720   -3.4810 H   0  0  0  0  0  0  0  0  0  0  0  0
    5.1960   -2.2410   -2.6830 H   0  0  0  0  0  0  0  0  0  0  0  0
    3.2210   -5.0660    1.0240 H   0  0  0  0  0  0  0  0  0  0  0  0
    3.0640   -1.1370    2.7490 H   0  0  0  0  0  0  0  0  0  0  0  0
    3.3390   -2.1220    5.0020 H   0  0  0  0  0  0  0  0  0  0  0  0
    3.5000   -6.0400    3.2800 H   0  0  0  0  0  0  0  0  0  0  0  0
    3.6040   -3.9330    6.3880 H   0  0  0  0  0  0  0  0  0  0  0  0
    4.5460   -5.2740    5.6940 H   0  0  0  0  0  0  0  0  0  0  0  0
    2.7780   -5.4150    5.8500 H   0  0  0  0  0  0  0  0  0  0  0  0
  1  3  1  0  0  0  0
  1  5  2  0  0  0  0
  1  6  1  0  0  0  0
  2  3  2  0  0  0  0
  2  4  1  0  0  0  0
  3 13  1  0  0  0  0
  4  5  1  0  0  0  0
  4 15  1  0  0  0  0
  5 24  1  0  0  0  0
  6  7  2  0  0  0  0
  6 25  1  0  0  0  0
  7 10  1  0  0  0  0
  7 11  1  0  0  0  0
  8 10  3  0  0  0  0
  9 11  3  0  0  0  0
 12 14  1  0  0  0  0
 12 16  2  0  0  0  0
 12 19  1  0  0  0  0
 13 17  2  0  0  0  0
 13 18  1  0  0  0  0
 14 15  1  0  0  0  0
 14 26  1  0  0  0  0
 14 27  1  0  0  0  0
 15 28  1  0  0  0  0
 15 29  1  0  0  0  0
 17 21  1  0  0  0  0
 17 30  1  0  0  0  0
 18 20  2  0  0  0  0
 18 31  1  0  0  0  0
 20 22  1  0  0  0  0
 20 32  1  0  0  0  0
 21 22  2  0  0  0  0
 21 33  1  0  0  0  0
 22 23  1  0  0  0  0
 23 34  1  0  0  0  0
 23 35  1  0  0  0  0
 23 36  1  0  0  0  0
M  CHG  1  19  -1
M  END
>  <$CLUSTER>
291

>  <INDEX>
182954

$$$$
Sigma-Aldrich (SALOR) L305952
  MOE2020           3D

 31 33  0  0  0  0  0  0  0  0999 V2000
    0.2200    0.6580    0.0000 C   0  0  0  0  0  0  0  0  0  0  0  0
   -0.7980   -0.2530    0.0720 C   0  0  0  0  0  0  0  0  0  0  0  0
   -0.0150    2.0240    0.0480 N   0  0  0  0  0  0  0  0  0  0  0  0
   -2.3680    1.4910    0.2450 N   0  0  0  0  0  0  0  0  0  0  0  0
   -1.3430    2.4990    0.1740 C   0  0  0  0  0  0  0  0  0  0  0  0
    1.4380    0.0460   -0.1200 N   0  0  0  0  0  0  0  0  0  0  0  0
   -2.1780    0.0860    0.2000 C   0  0  0  0  0  0  0  0  0  0  0  0
   -0.1900   -1.4730   -0.0060 N   0  0  0  0  0  0  0  0  0  0  0  0
    1.1570   -1.2400   -0.1200 C   0  0  0  0  0  0  0  0  0  0  0  0
    2.1710   -2.3300   -0.2320 C   0  0  0  0  0  0  0  0  0  0  0  0
   -1.6120    3.7050    0.2220 O   0  0  0  0  0  0  0  0  0  0  0  0
   -3.0710   -0.7530    0.2630 O   0  0  0  0  0  0  0  0  0  0  0  0
    1.1020    2.9570   -0.0320 C   0  0  0  0  0  0  0  0  0  0  0  0
   -3.7340    1.9840    0.3750 C   0  0  0  0  0  0  0  0  0  0  0  0
    3.5330   -2.0010   -0.3410 C   0  0  0  0  0  0  0  0  0  0  0  0
    1.8130   -3.6870   -0.2320 C   0  0  0  0  0  0  0  0  0  0  0  0
    4.1340   -4.3400   -0.4440 C   0  0  0  0  0  0  0  0  0  0  0  0
    2.7890   -4.6830   -0.3380 C   0  0  0  0  0  0  0  0  0  0  0  0
    4.5060   -2.9990   -0.4460 C   0  0  0  0  0  0  0  0  0  0  0  0
    4.9970   -5.3510   -0.5400 F   0  0  0  0  0  0  0  0  0  0  0  0
   -0.6450   -2.3740    0.0160 H   0  0  0  0  0  0  0  0  0  0  0  0
    2.0340    2.4000   -0.1250 H   0  0  0  0  0  0  0  0  0  0  0  0
    1.1310    3.5670    0.8710 H   0  0  0  0  0  0  0  0  0  0  0  0
    0.9750    3.6020   -0.9020 H   0  0  0  0  0  0  0  0  0  0  0  0
   -3.7260    3.0740    0.3960 H   0  0  0  0  0  0  0  0  0  0  0  0
   -4.1700    1.6060    1.2990 H   0  0  0  0  0  0  0  0  0  0  0  0
   -4.3260    1.6410   -0.4730 H   0  0  0  0  0  0  0  0  0  0  0  0
    3.8320   -0.9630   -0.3440 H   0  0  0  0  0  0  0  0  0  0  0  0
    0.7730   -3.9650   -0.1490 H   0  0  0  0  0  0  0  0  0  0  0  0
    2.4980   -5.7230   -0.3380 H   0  0  0  0  0  0  0  0  0  0  0  0
    5.5480   -2.7290   -0.5290 H   0  0  0  0  0  0  0  0  0  0  0  0
  1  2  2  0  0  0  0
  1  3  1  0  0  0  0
  1  6  1  0  0  0  0
  2  7  1  0  0  0  0
  2  8  1  0  0  0  0
  3  5  1  0  0  0  0
  3 13  1  0  0  0  0
  4  5  1  0  0  0  0
  4  7  1  0  0  0  0
  4 14  1  0  0  0  0
  5 11  2  0  0  0  0
  6  9  2  0  0  0  0
  7 12  2  0  0  0  0
  8  9  1  0  0  0  0
  8 21  1  0  0  0  0
  9 10  1  0  0  0  0
 10 15  1  0  0  0  0
 10 16  2  0  0  0  0
 13 22  1  0  0  0  0
 13 23  1  0  0  0  0
 13 24  1  0  0  0  0
 14 25  1  0  0  0  0
 14 26  1  0  0  0  0
 14 27  1  0  0  0  0
 15 19  2  0  0  0  0
 15 28  1  0  0  0  0
 16 18  1  0  0  0  0
 16 29  1  0  0  0  0
 17 18  2  0  0  0  0
 17 19  1  0  0  0  0
 17 20  1  0  0  0  0
 18 30  1  0  0  0  0
 19 31  1  0  0  0  0
M  END
>  <$CLUSTER>
292

>  <INDEX>
559103

$$$$
Akos LT-1156 X 160
  MOE2020           3D

 45 46  0  0  0  0  0  0  0  0999 V2000
    0.1600   -0.2320    0.8450 C   0  0  0  0  0  0  0  0  0  0  0  0
   -0.6200   -0.4820   -0.3020 C   0  0  0  0  0  0  0  0  0  0  0  0
    0.5110    1.0840    1.1680 C   0  0  0  0  0  0  0  0  0  0  0  0
   -1.0320    0.5880   -1.1050 C   0  0  0  0  0  0  0  0  0  0  0  0
    0.0940    2.1430    0.3600 C   0  0  0  0  0  0  0  0  0  0  0  0
   -0.6760    1.8950   -0.7730 C   0  0  0  0  0  0  0  0  0  0  0  0
    0.5210   -1.3370    1.5750 O   0  0  0  0  0  0  0  0  0  0  0  0
   -0.9190   -1.8010   -0.5450 O   0  0  0  0  0  0  0  0  0  0  0  0
   -0.5590    4.1760    1.6130 N   0  3  0  0  0  0  0  0  0  0  0  0
   -1.7040   -2.0900   -1.6950 C   0  0  0  0  0  0  0  0  0  0  0  0
   -2.7870   -3.8790   -3.0570 C   0  0  0  0  0  0  0  0  0  0  0  0
    0.4600    3.5750    0.7380 C   0  0  0  0  0  0  0  0  0  0  0  0
   -1.9500   -3.5570   -1.8330 C   0  0  0  0  0  0  0  0  0  0  0  0
   -0.2840    5.5740    2.0320 C   0  0  0  0  0  0  0  0  0  0  0  0
    1.3090   -1.1210    2.7400 C   0  0  0  0  0  0  0  0  0  0  0  0
   -2.1750   -4.1210   -4.2950 C   0  0  0  0  0  0  0  0  0  0  0  0
   -4.1860   -3.9080   -2.9760 C   0  0  0  0  0  0  0  0  0  0  0  0
   -1.4100    6.0730    2.9290 C   0  0  0  0  0  0  0  0  0  0  0  0
   -2.9470   -4.3940   -5.4250 C   0  0  0  0  0  0  0  0  0  0  0  0
   -4.9560   -4.1810   -4.1070 C   0  0  0  0  0  0  0  0  0  0  0  0
   -4.3360   -4.4250   -5.3300 C   0  0  0  0  0  0  0  0  0  0  0  0
    1.1070    1.2810    2.0470 H   0  0  0  0  0  0  0  0  0  0  0  0
   -1.6280    0.4010   -1.9860 H   0  0  0  0  0  0  0  0  0  0  0  0
   -0.9980    2.7160   -1.3960 H   0  0  0  0  0  0  0  0  0  0  0  0
   -0.6310    3.6080    2.4450 H   0  0  0  0  0  0  0  0  0  0  0  0
   -1.4410    4.1650    1.1200 H   0  0  0  0  0  0  0  0  0  0  0  0
   -1.1790   -1.7340   -2.5810 H   0  0  0  0  0  0  0  0  0  0  0  0
   -2.6620   -1.5760   -1.6090 H   0  0  0  0  0  0  0  0  0  0  0  0
    0.5440    4.1710   -0.1710 H   0  0  0  0  0  0  0  0  0  0  0  0
    1.4170    3.5710    1.2590 H   0  0  0  0  0  0  0  0  0  0  0  0
   -2.4740   -3.9110   -0.9450 H   0  0  0  0  0  0  0  0  0  0  0  0
   -0.9910   -4.0680   -1.9180 H   0  0  0  0  0  0  0  0  0  0  0  0
   -0.2150    6.2100    1.1490 H   0  0  0  0  0  0  0  0  0  0  0  0
    0.6580    5.6090    2.5790 H   0  0  0  0  0  0  0  0  0  0  0  0
    1.5200   -2.0770    3.2180 H   0  0  0  0  0  0  0  0  0  0  0  0
    0.7640   -0.4810    3.4340 H   0  0  0  0  0  0  0  0  0  0  0  0
    2.2460   -0.6390    2.4610 H   0  0  0  0  0  0  0  0  0  0  0  0
   -1.0980   -4.0960   -4.3750 H   0  0  0  0  0  0  0  0  0  0  0  0
   -4.6720   -3.7170   -2.0300 H   0  0  0  0  0  0  0  0  0  0  0  0
   -2.3520    6.0380    2.3830 H   0  0  0  0  0  0  0  0  0  0  0  0
   -1.2040    7.0990    3.2330 H   0  0  0  0  0  0  0  0  0  0  0  0
   -1.4790    5.4390    3.8130 H   0  0  0  0  0  0  0  0  0  0  0  0
   -2.4670   -4.5810   -6.3740 H   0  0  0  0  0  0  0  0  0  0  0  0
   -6.0330   -4.2030   -4.0340 H   0  0  0  0  0  0  0  0  0  0  0  0
   -4.9320   -4.6380   -6.2050 H   0  0  0  0  0  0  0  0  0  0  0  0
  1  2  2  0  0  0  0
  1  3  1  0  0  0  0
  1  7  1  0  0  0  0
  2  4  1  0  0  0  0
  2  8  1  0  0  0  0
  3  5  2  0  0  0  0
  3 22  1  0  0  0  0
  4  6  2  0  0  0  0
  4 23  1  0  0  0  0
  5  6  1  0  0  0  0
  5 12  1  0  0  0  0
  6 24  1  0  0  0  0
  7 15  1  0  0  0  0
  8 10  1  0  0  0  0
  9 12  1  0  0  0  0
  9 14  1  0  0  0  0
  9 25  1  0  0  0  0
  9 26  1  0  0  0  0
 10 13  1  0  0  0  0
 10 27  1  0  0  0  0
 10 28  1  0  0  0  0
 11 13  1  0  0  0  0
 11 16  2  0  0  0  0
 11 17  1  0  0  0  0
 12 29  1  0  0  0  0
 12 30  1  0  0  0  0
 13 31  1  0  0  0  0
 13 32  1  0  0  0  0
 14 18  1  0  0  0  0
 14 33  1  0  0  0  0
 14 34  1  0  0  0  0
 15 35  1  0  0  0  0
 15 36  1  0  0  0  0
 15 37  1  0  0  0  0
 16 19  1  0  0  0  0
 16 38  1  0  0  0  0
 17 20  2  0  0  0  0
 17 39  1  0  0  0  0
 18 40  1  0  0  0  0
 18 41  1  0  0  0  0
 18 42  1  0  0  0  0
 19 21  2  0  0  0  0
 19 43  1  0  0  0  0
 20 21  1  0  0  0  0
 20 44  1  0  0  0  0
 21 45  1  0  0  0  0
M  CHG  1   9   1
M  END
>  <$CLUSTER>
293

>  <INDEX>
207554

$$$$
Akos LT-1014 X 1286
  MOE2020           3D

 43 44  0  0  0  0  0  0  0  0999 V2000
   -0.9390   -1.0900   -1.8950 C   0  0  0  0  0  0  0  0  0  0  0  0
   -0.3500   -2.2960   -2.2470 C   0  0  0  0  0  0  0  0  0  0  0  0
   -1.6430   -0.3140   -2.8200 C   0  0  0  0  0  0  0  0  0  0  0  0
   -0.4480   -2.7470   -3.5630 C   0  0  0  0  0  0  0  0  0  0  0  0
   -1.7330   -0.7770   -4.1420 C   0  0  0  0  0  0  0  0  0  0  0  0
   -1.1340   -1.9860   -4.5080 C   0  0  0  0  0  0  0  0  0  0  0  0
    0.2460    0.7540    1.0310 C   0  0  0  0  0  0  0  0  0  0  0  0
   -0.0930   -1.9620   -6.7570 N   0  3  0  0  0  0  0  0  0  0  0  0
    1.3110    0.6380    1.8330 C   0  0  0  0  0  0  0  0  0  0  0  0
    0.4930   -3.2750   -1.1020 Cl  0  0  0  0  0  0  0  0  0  0  0  0
   -0.8330   -0.6360   -0.5520 O   0  0  0  0  0  0  0  0  0  0  0  0
   -2.2250    0.8610   -2.3520 O   0  0  0  0  0  0  0  0  0  0  0  0
   -1.2220   -2.4650   -5.9600 C   0  0  0  0  0  0  0  0  0  0  0  0
    1.1180   -1.7950   -8.8920 C   0  0  0  0  0  0  0  0  0  0  0  0
   -0.0970   -2.3790   -8.1820 C   0  0  0  0  0  0  0  0  0  0  0  0
    0.2220    0.3110   -0.3970 C   0  0  0  0  0  0  0  0  0  0  0  0
   -2.9860    1.6240   -3.2960 C   0  0  0  0  0  0  0  0  0  0  0  0
    1.0480   -0.5370   -9.5100 C   0  0  0  0  0  0  0  0  0  0  0  0
    2.3280   -2.5050   -8.9370 C   0  0  0  0  0  0  0  0  0  0  0  0
    3.4410   -1.9660   -9.5830 C   0  0  0  0  0  0  0  0  0  0  0  0
    2.1630   -0.0010  -10.1540 C   0  0  0  0  0  0  0  0  0  0  0  0
    3.3580   -0.7150  -10.1930 C   0  0  0  0  0  0  0  0  0  0  0  0
    0.0070   -3.6840   -3.8490 H   0  0  0  0  0  0  0  0  0  0  0  0
   -2.2670   -0.1970   -4.8800 H   0  0  0  0  0  0  0  0  0  0  0  0
   -0.6510    1.1950    1.4400 H   0  0  0  0  0  0  0  0  0  0  0  0
    0.7620   -2.2960   -6.3350 H   0  0  0  0  0  0  0  0  0  0  0  0
   -0.1120   -0.9530   -6.7260 H   0  0  0  0  0  0  0  0  0  0  0  0
    1.2570    0.9800    2.8560 H   0  0  0  0  0  0  0  0  0  0  0  0
    2.2250    0.2020    1.4570 H   0  0  0  0  0  0  0  0  0  0  0  0
   -2.1540   -2.1050   -6.3970 H   0  0  0  0  0  0  0  0  0  0  0  0
   -1.2100   -3.5550   -5.9760 H   0  0  0  0  0  0  0  0  0  0  0  0
   -1.0060   -2.0170   -8.6630 H   0  0  0  0  0  0  0  0  0  0  0  0
   -0.0630   -3.4670   -8.2410 H   0  0  0  0  0  0  0  0  0  0  0  0
    1.1740   -0.1520   -0.6560 H   0  0  0  0  0  0  0  0  0  0  0  0
    0.0460    1.1690   -1.0460 H   0  0  0  0  0  0  0  0  0  0  0  0
   -3.3850    2.5130   -2.8070 H   0  0  0  0  0  0  0  0  0  0  0  0
   -3.8090    1.0170   -3.6750 H   0  0  0  0  0  0  0  0  0  0  0  0
   -2.3430    1.9220   -4.1240 H   0  0  0  0  0  0  0  0  0  0  0  0
    0.1230    0.0210   -9.4870 H   0  0  0  0  0  0  0  0  0  0  0  0
    2.3980   -3.4750   -8.4680 H   0  0  0  0  0  0  0  0  0  0  0  0
    4.3680   -2.5190   -9.6110 H   0  0  0  0  0  0  0  0  0  0  0  0
    2.1000    0.9700  -10.6230 H   0  0  0  0  0  0  0  0  0  0  0  0
    4.2190   -0.3000  -10.6950 H   0  0  0  0  0  0  0  0  0  0  0  0
  1  2  2  0  0  0  0
  1  3  1  0  0  0  0
  1 11  1  0  0  0  0
  2  4  1  0  0  0  0
  2 10  1  0  0  0  0
  3  5  2  0  0  0  0
  3 12  1  0  0  0  0
  4  6  2  0  0  0  0
  4 23  1  0  0  0  0
  5  6  1  0  0  0  0
  5 24  1  0  0  0  0
  6 13  1  0  0  0  0
  7  9  2  0  0  0  0
  7 16  1  0  0  0  0
  7 25  1  0  0  0  0
  8 13  1  0  0  0  0
  8 15  1  0  0  0  0
  8 26  1  0  0  0  0
  8 27  1  0  0  0  0
  9 28  1  0  0  0  0
  9 29  1  0  0  0  0
 11 16  1  0  0  0  0
 12 17  1  0  0  0  0
 13 30  1  0  0  0  0
 13 31  1  0  0  0  0
 14 15  1  0  0  0  0
 14 18  1  0  0  0  0
 14 19  2  0  0  0  0
 15 32  1  0  0  0  0
 15 33  1  0  0  0  0
 16 34  1  0  0  0  0
 16 35  1  0  0  0  0
 17 36  1  0  0  0  0
 17 37  1  0  0  0  0
 17 38  1  0  0  0  0
 18 21  2  0  0  0  0
 18 39  1  0  0  0  0
 19 20  1  0  0  0  0
 19 40  1  0  0  0  0
 20 22  2  0  0  0  0
 20 41  1  0  0  0  0
 21 22  1  0  0  0  0
 21 42  1  0  0  0  0
 22 43  1  0  0  0  0
M  CHG  1   8   1
M  END
>  <$CLUSTER>
294

>  <INDEX>
203611

$$$$
Comgenex CGX-2051716
  MOE2020           3D

 40 41  0  0  0  0  0  0  0  0999 V2000
    0.1440    0.6920   -0.2350 N   0  0  0  0  0  0  0  0  0  0  0  0
   -0.7180   -0.2890   -0.7470 C   0  0  0  0  0  0  0  0  0  0  0  0
   -1.5110    0.3300   -1.7060 C   0  0  0  0  0  0  0  0  0  0  0  0
   -0.0040    1.8280   -1.0130 C   0  0  0  0  0  0  0  0  0  0  0  0
   -0.7640   -1.7010   -0.3990 C   0  0  0  0  0  0  0  0  0  0  0  0
   -1.0510    1.6480   -1.8830 C   0  0  0  0  0  0  0  0  0  0  0  0
   -2.5630   -0.2900   -2.4470 C   0  0  0  0  0  0  0  0  0  0  0  0
   -3.4180   -0.7900   -3.0530 N   0  0  0  0  0  0  0  0  0  0  0  0
    1.0200    0.6000    0.8910 C   0  0  0  0  0  0  0  0  0  0  0  0
   -1.8070   -2.3070   -0.1610 O   0  0  0  0  0  0  0  0  0  0  0  0
    0.4620   -2.3350   -0.4170 N   0  0  0  0  0  0  0  0  0  0  0  0
    2.1530    1.4220    0.9710 C   0  0  0  0  0  0  0  0  0  0  0  0
    0.7380   -0.2750    1.9490 C   0  0  0  0  0  0  0  0  0  0  0  0
    3.0030    1.3470    2.0780 C   0  0  0  0  0  0  0  0  0  0  0  0
    1.5920   -0.3440    3.0540 C   0  0  0  0  0  0  0  0  0  0  0  0
    2.7250    0.4630    3.1170 C   0  0  0  0  0  0  0  0  0  0  0  0
    0.6900   -3.7300   -0.1180 C   0  0  0  0  0  0  0  0  0  0  0  0
    3.6400    0.3820    4.2940 C   0  0  0  0  0  0  0  0  0  0  0  0
    0.8240   -3.9680    1.3750 C   0  0  0  0  0  0  0  0  0  0  0  0
    1.0750   -5.4300    1.7020 C   0  0  0  0  0  0  0  0  0  0  0  0
    1.2090   -5.6640    3.1970 C   0  0  0  0  0  0  0  0  0  0  0  0
    0.6080    2.7160   -0.9460 H   0  0  0  0  0  0  0  0  0  0  0  0
   -1.4460    2.3790   -2.5720 H   0  0  0  0  0  0  0  0  0  0  0  0
    1.2680   -1.7770   -0.6600 H   0  0  0  0  0  0  0  0  0  0  0  0
    2.3700    2.1170    0.1730 H   0  0  0  0  0  0  0  0  0  0  0  0
   -0.1430   -0.8990    1.9110 H   0  0  0  0  0  0  0  0  0  0  0  0
    3.8790    1.9770    2.1280 H   0  0  0  0  0  0  0  0  0  0  0  0
    1.3720   -1.0260    3.8620 H   0  0  0  0  0  0  0  0  0  0  0  0
    1.6070   -4.0520   -0.6110 H   0  0  0  0  0  0  0  0  0  0  0  0
   -0.1490   -4.3140   -0.4950 H   0  0  0  0  0  0  0  0  0  0  0  0
    4.4640    1.0840    4.1630 H   0  0  0  0  0  0  0  0  0  0  0  0
    4.0350   -0.6300    4.3780 H   0  0  0  0  0  0  0  0  0  0  0  0
    3.0890    0.6330    5.2000 H   0  0  0  0  0  0  0  0  0  0  0  0
   -0.0970   -3.6520    1.8650 H   0  0  0  0  0  0  0  0  0  0  0  0
    1.6580   -3.3760    1.7520 H   0  0  0  0  0  0  0  0  0  0  0  0
    1.9960   -5.7470    1.2120 H   0  0  0  0  0  0  0  0  0  0  0  0
    0.2410   -6.0230    1.3260 H   0  0  0  0  0  0  0  0  0  0  0  0
    2.0410   -5.0750    3.5840 H   0  0  0  0  0  0  0  0  0  0  0  0
    1.3940   -6.7220    3.3840 H   0  0  0  0  0  0  0  0  0  0  0  0
    0.2880   -5.3630    3.6960 H   0  0  0  0  0  0  0  0  0  0  0  0
  1  2  1  0  0  0  0
  1  4  1  0  0  0  0
  1  9  1  0  0  0  0
  2  3  2  0  0  0  0
  2  5  1  0  0  0  0
  3  6  1  0  0  0  0
  3  7  1  0  0  0  0
  4  6  2  0  0  0  0
  4 22  1  0  0  0  0
  5 10  2  0  0  0  0
  5 11  1  0  0  0  0
  6 23  1  0  0  0  0
  7  8  3  0  0  0  0
  9 12  2  0  0  0  0
  9 13  1  0  0  0  0
 11 17  1  0  0  0  0
 11 24  1  0  0  0  0
 12 14  1  0  0  0  0
 12 25  1  0  0  0  0
 13 15  2  0  0  0  0
 13 26  1  0  0  0  0
 14 16  2  0  0  0  0
 14 27  1  0  0  0  0
 15 16  1  0  0  0  0
 15 28  1  0  0  0  0
 16 18  1  0  0  0  0
 17 19  1  0  0  0  0
 17 29  1  0  0  0  0
 17 30  1  0  0  0  0
 18 31  1  0  0  0  0
 18 32  1  0  0  0  0
 18 33  1  0  0  0  0
 19 20  1  0  0  0  0
 19 34  1  0  0  0  0
 19 35  1  0  0  0  0
 20 21  1  0  0  0  0
 20 36  1  0  0  0  0
 20 37  1  0  0  0  0
 21 38  1  0  0  0  0
 21 39  1  0  0  0  0
 21 40  1  0  0  0  0
M  END
>  <$CLUSTER>
295

>  <INDEX>
244662

$$$$
Cerep CER0116166
  MOE2020           3D

 39 42  0  0  0  0  0  0  0  0999 V2000
    0.6950    0.9520    0.0330 C   0  0  0  0  0  0  0  0  0  0  0  0
   -0.7070    0.7670   -0.0510 C   0  0  0  0  0  0  0  0  0  0  0  0
    1.7460   -0.0270    0.1580 C   0  0  0  0  0  0  0  0  0  0  0  0
   -1.4310   -0.4970   -0.1000 C   0  0  0  0  0  0  0  0  0  0  0  0
    1.0100    2.2550    0.0210 N   0  0  0  0  0  0  0  0  0  0  0  0
    1.5330   -1.3360    0.4900 O   0  0  0  0  0  0  0  0  0  0  0  0
    3.0230    0.2590    0.0000 N   0  0  0  0  0  0  0  0  0  0  0  0
   -0.9200   -1.5240   -0.8730 N   0  0  0  0  0  0  0  0  0  0  0  0
    2.8030   -1.8210    0.5020 C   0  0  0  0  0  0  0  0  0  0  0  0
    3.7130   -0.9190    0.2190 N   0  0  0  0  0  0  0  0  0  0  0  0
   -0.1920    2.9340   -0.0450 O   0  0  0  0  0  0  0  0  0  0  0  0
   -1.2200    2.0440   -0.0850 C   0  0  0  0  0  0  0  0  0  0  0  0
   -2.6290   -0.7700    0.5310 C   0  0  0  0  0  0  0  0  0  0  0  0
   -1.7230   -2.5620   -0.8000 C   0  0  0  0  0  0  0  0  0  0  0  0
   -3.1240   -2.3740    0.1710 S   0  0  0  0  0  0  0  0  0  0  0  0
    3.0910   -3.4980    0.8750 S   0  0  0  0  0  0  0  0  0  0  0  0
    4.8920   -3.5840    0.7570 C   0  0  0  0  0  0  0  0  0  0  0  0
    6.8260   -1.4910    4.0110 C   0  0  0  0  0  0  0  0  0  0  0  0
    5.5880   -2.8490    1.8990 C   0  0  0  0  0  0  0  0  0  0  0  0
    7.4230   -0.9230    5.0590 F   0  0  0  0  0  0  0  0  0  0  0  0
    6.4840   -0.8060    2.8470 C   0  0  0  0  0  0  0  0  0  0  0  0
    6.5440   -2.8530    4.1260 C   0  0  0  0  0  0  0  0  0  0  0  0
    5.8610   -1.4800    1.7940 C   0  0  0  0  0  0  0  0  0  0  0  0
    5.9220   -3.5300    3.0760 C   0  0  0  0  0  0  0  0  0  0  0  0
   -2.5770    2.6180   -0.1720 C   0  0  0  0  0  0  0  0  0  0  0  0
   -1.4740   -3.8330   -1.4950 C   0  0  0  0  0  0  0  0  0  0  0  0
   -3.1730   -0.0780    1.1570 H   0  0  0  0  0  0  0  0  0  0  0  0
    5.2020   -3.1370   -0.1870 H   0  0  0  0  0  0  0  0  0  0  0  0
    5.1940   -4.6310    0.7800 H   0  0  0  0  0  0  0  0  0  0  0  0
    6.7010    0.2480    2.7590 H   0  0  0  0  0  0  0  0  0  0  0  0
    6.8080   -3.3840    5.0290 H   0  0  0  0  0  0  0  0  0  0  0  0
    5.5890   -0.9440    0.8970 H   0  0  0  0  0  0  0  0  0  0  0  0
    5.6980   -4.5820    3.1720 H   0  0  0  0  0  0  0  0  0  0  0  0
   -3.3110    1.8130   -0.1970 H   0  0  0  0  0  0  0  0  0  0  0  0
   -2.6610    3.2150   -1.0800 H   0  0  0  0  0  0  0  0  0  0  0  0
   -2.7610    3.2500    0.6970 H   0  0  0  0  0  0  0  0  0  0  0  0
   -0.5430   -3.7630   -2.0580 H   0  0  0  0  0  0  0  0  0  0  0  0
   -2.2970   -4.0410   -2.1790 H   0  0  0  0  0  0  0  0  0  0  0  0
   -1.3970   -4.6380   -0.7640 H   0  0  0  0  0  0  0  0  0  0  0  0
  1  2  1  0  0  0  0
  1  3  1  0  0  0  0
  1  5  2  0  0  0  0
  2  4  1  0  0  0  0
  2 12  2  0  0  0  0
  3  6  1  0  0  0  0
  3  7  2  0  0  0  0
  4  8  1  0  0  0  0
  4 13  2  0  0  0  0
  5 11  1  0  0  0  0
  6  9  1  0  0  0  0
  7 10  1  0  0  0  0
  8 14  2  0  0  0  0
  9 10  2  0  0  0  0
  9 16  1  0  0  0  0
 11 12  1  0  0  0  0
 12 25  1  0  0  0  0
 13 15  1  0  0  0  0
 13 27  1  0  0  0  0
 14 15  1  0  0  0  0
 14 26  1  0  0  0  0
 16 17  1  0  0  0  0
 17 19  1  0  0  0  0
 17 28  1  0  0  0  0
 17 29  1  0  0  0  0
 18 20  1  0  0  0  0
 18 21  2  0  0  0  0
 18 22  1  0  0  0  0
 19 23  2  0  0  0  0
 19 24  1  0  0  0  0
 21 23  1  0  0  0  0
 21 30  1  0  0  0  0
 22 24  2  0  0  0  0
 22 31  1  0  0  0  0
 23 32  1  0  0  0  0
 24 33  1  0  0  0  0
 25 34  1  0  0  0  0
 25 35  1  0  0  0  0
 25 36  1  0  0  0  0
 26 37  1  0  0  0  0
 26 38  1  0  0  0  0
 26 39  1  0  0  0  0
M  END
>  <$CLUSTER>
296

>  <INDEX>
188204

$$$$
Cerep CER0127975
  MOE2020           3D

 50 53  0  0  0  0  0  0  0  0999 V2000
   -0.0460   -0.7080    0.6040 C   0  0  0  0  0  0  0  0  0  0  0  0
   -1.0710   -1.6080    0.1430 N   0  3  0  0  0  0  0  0  0  0  0  0
    0.6170   -1.0700    1.7840 C   0  0  0  0  0  0  0  0  0  0  0  0
    2.3060   -0.5840    3.4750 N   0  0  0  0  0  0  0  0  0  0  0  0
    1.6170   -0.2390    2.2770 C   0  0  0  0  0  0  0  0  0  0  0  0
    3.7490   -0.4620    5.1930 N   0  0  0  0  0  0  0  0  0  0  0  0
    3.3170    0.1230    4.0970 C   0  0  0  0  0  0  0  0  0  0  0  0
   -0.7580    3.3490   -4.1140 C   0  0  0  0  0  0  0  0  0  0  0  0
    0.2450    0.4620   -0.1210 C   0  0  0  0  0  0  0  0  0  0  0  0
   -1.5310    4.5150   -6.1950 C   0  0  0  0  0  0  0  0  0  0  0  0
   -2.7150    6.2670   -7.1400 C   0  0  0  0  0  0  0  0  0  0  0  0
   -2.4270    5.3610   -8.1540 C   0  0  0  0  0  0  0  0  0  0  0  0
   -2.2230   -1.4330    0.5740 O   0  5  0  0  0  0  0  0  0  0  0  0
   -1.5750    3.4270   -5.2260 N   0  0  0  0  0  0  0  0  0  0  0  0
   -0.7230   -2.5360   -0.6070 O   0  0  0  0  0  0  0  0  0  0  0  0
    2.1060   -1.6990    4.2620 C   0  0  0  0  0  0  0  0  0  0  0  0
   -2.4380    5.6580   -5.7470 C   0  0  0  0  0  0  0  0  0  0  0  0
   -1.9190    4.0220   -7.5840 C   0  0  0  0  0  0  0  0  0  0  0  0
    3.0000   -1.5960    5.3020 C   0  0  0  0  0  0  0  0  0  0  0  0
   -1.0450    2.0980   -3.2870 C   0  0  0  0  0  0  0  0  0  0  0  0
    1.9380    0.9300    1.5920 C   0  0  0  0  0  0  0  0  0  0  0  0
    0.0870    4.1840   -3.8350 O   0  0  0  0  0  0  0  0  0  0  0  0
    1.2620    1.2720    0.4140 C   0  0  0  0  0  0  0  0  0  0  0  0
   -0.4290    0.8130   -1.3040 N   0  0  0  0  0  0  0  0  0  0  0  0
   -0.1420    2.0210   -2.0690 C   0  0  0  0  0  0  0  0  0  0  0  0
   -3.2250    7.5290   -7.4300 C   0  0  0  0  0  0  0  0  0  0  0  0
   -2.6400    5.6870   -9.4900 C   0  0  0  0  0  0  0  0  0  0  0  0
   -3.1400    6.9580   -9.7940 C   0  0  0  0  0  0  0  0  0  0  0  0
   -3.4300    7.8730   -8.7700 C   0  0  0  0  0  0  0  0  0  0  0  0
    0.3550   -1.9800    2.3030 H   0  0  0  0  0  0  0  0  0  0  0  0
    3.7110    1.0570    3.7230 H   0  0  0  0  0  0  0  0  0  0  0  0
   -0.5080    4.8880   -6.2500 H   0  0  0  0  0  0  0  0  0  0  0  0
   -2.2430    2.6850   -5.3760 H   0  0  0  0  0  0  0  0  0  0  0  0
    1.3920   -2.4920    4.0950 H   0  0  0  0  0  0  0  0  0  0  0  0
   -1.9260    6.3560   -5.0850 H   0  0  0  0  0  0  0  0  0  0  0  0
   -3.3470    5.2990   -5.2640 H   0  0  0  0  0  0  0  0  0  0  0  0
   -2.7020    3.2650   -7.5490 H   0  0  0  0  0  0  0  0  0  0  0  0
   -1.0640    3.6350   -8.1380 H   0  0  0  0  0  0  0  0  0  0  0  0
    3.0960   -2.3180    6.1000 H   0  0  0  0  0  0  0  0  0  0  0  0
   -0.8800    1.2170   -3.9070 H   0  0  0  0  0  0  0  0  0  0  0  0
   -2.0840    2.1210   -2.9580 H   0  0  0  0  0  0  0  0  0  0  0  0
    2.7140    1.5780    1.9720 H   0  0  0  0  0  0  0  0  0  0  0  0
    1.5300    2.1840   -0.0980 H   0  0  0  0  0  0  0  0  0  0  0  0
   -1.1520    0.1940   -1.6430 H   0  0  0  0  0  0  0  0  0  0  0  0
   -0.3120    2.8940   -1.4390 H   0  0  0  0  0  0  0  0  0  0  0  0
    0.8990    2.0030   -2.3930 H   0  0  0  0  0  0  0  0  0  0  0  0
   -3.4570    8.2260   -6.6390 H   0  0  0  0  0  0  0  0  0  0  0  0
   -2.4240    4.9760  -10.2740 H   0  0  0  0  0  0  0  0  0  0  0  0
   -3.3040    7.2370  -10.8240 H   0  0  0  0  0  0  0  0  0  0  0  0
   -3.8150    8.8510   -9.0190 H   0  0  0  0  0  0  0  0  0  0  0  0
  1  2  1  0  0  0  0
  1  3  2  0  0  0  0
  1  9  1  0  0  0  0
  2 13  1  0  0  0  0
  2 15  2  0  0  0  0
  3  5  1  0  0  0  0
  3 30  1  0  0  0  0
  4  5  1  0  0  0  0
  4  7  1  0  0  0  0
  4 16  1  0  0  0  0
  5 21  2  0  0  0  0
  6  7  2  0  0  0  0
  6 19  1  0  0  0  0
  7 31  1  0  0  0  0
  8 14  1  0  0  0  0
  8 20  1  0  0  0  0
  8 22  2  0  0  0  0
  9 23  2  0  0  0  0
  9 24  1  0  0  0  0
 10 14  1  0  0  0  0
 10 17  1  0  0  0  0
 10 18  1  0  0  0  0
 10 32  1  0  0  0  0
 11 12  2  0  0  0  0
 11 17  1  0  0  0  0
 11 26  1  0  0  0  0
 12 18  1  0  0  0  0
 12 27  1  0  0  0  0
 14 33  1  0  0  0  0
 16 19  2  0  0  0  0
 16 34  1  0  0  0  0
 17 35  1  0  0  0  0
 17 36  1  0  0  0  0
 18 37  1  0  0  0  0
 18 38  1  0  0  0  0
 19 39  1  0  0  0  0
 20 25  1  0  0  0  0
 20 40  1  0  0  0  0
 20 41  1  0  0  0  0
 21 23  1  0  0  0  0
 21 42  1  0  0  0  0
 23 43  1  0  0  0  0
 24 25  1  0  0  0  0
 24 44  1  0  0  0  0
 25 45  1  0  0  0  0
 25 46  1  0  0  0  0
 26 29  2  0  0  0  0
 26 47  1  0  0  0  0
 27 28  2  0  0  0  0
 27 48  1  0  0  0  0
 28 29  1  0  0  0  0
 28 49  1  0  0  0  0
 29 50  1  0  0  0  0
M  CHG  1   2   1
M  CHG  1  13  -1
M  END
>  <$CLUSTER>
297

>  <INDEX>
188649

$$$$
Cerep CER0129634
  MOE2020           3D

 46 48  0  0  0  0  0  0  0  0999 V2000
   -0.3450   -0.3250   -0.9100 C   0  0  0  0  0  0  0  0  0  0  0  0
    0.2410   -0.2460   -2.1940 N   0  0  0  0  0  0  0  0  0  0  0  0
   -1.5050   -0.9130   -0.8980 N   0  0  0  0  0  0  0  0  0  0  0  0
    1.4800    0.3080   -2.5440 C   0  0  0  0  0  0  0  0  0  0  0  0
    0.3330    0.2090    0.1660 N   0  0  0  0  0  0  0  0  0  0  0  0
    4.7910    1.3770   -6.2140 C   0  0  0  0  0  0  0  0  0  0  0  0
    2.2700    0.8120   -1.7450 O   0  0  0  0  0  0  0  0  0  0  0  0
    5.5390    1.8740   -5.3690 O   0  0  0  0  0  0  0  0  0  0  0  0
    5.1780    1.3440   -7.6670 C   0  0  0  0  0  0  0  0  0  0  0  0
   -0.6750   -0.8430   -3.1320 C   0  0  0  0  0  0  0  0  0  0  0  0
   -0.0200    0.2530    1.5320 C   0  0  0  0  0  0  0  0  0  0  0  0
   -1.8150   -1.3320   -2.2720 C   0  0  0  0  0  0  0  0  0  0  0  0
   -0.5800    0.4360    4.2970 C   0  0  0  0  0  0  0  0  0  0  0  0
   -0.9110    0.5500    5.9610 Cl  0  0  0  0  0  0  0  0  0  0  0  0
   -1.1890   -0.3000    2.0700 C   0  0  0  0  0  0  0  0  0  0  0  0
    0.8610    0.9020    2.4190 C   0  0  0  0  0  0  0  0  0  0  0  0
   -1.4660   -0.2090    3.4400 C   0  0  0  0  0  0  0  0  0  0  0  0
    0.5860    0.9930    3.7860 C   0  0  0  0  0  0  0  0  0  0  0  0
    1.8240    0.2550   -4.0130 C   0  0  0  0  0  0  0  0  0  0  0  0
    3.1360    0.8430   -4.3810 C   0  0  0  0  0  0  0  0  0  0  0  0
    3.4480    0.7730   -5.8550 C   0  0  0  0  0  0  0  0  0  0  0  0
    4.3780    0.8000   -8.6470 C   0  0  0  0  0  0  0  0  0  0  0  0
    6.4290    1.9080   -8.0090 C   0  0  0  0  0  0  0  0  0  0  0  0
    4.7990    0.8030   -9.9800 C   0  0  0  0  0  0  0  0  0  0  0  0
    6.8440    1.9080   -9.3410 C   0  0  0  0  0  0  0  0  0  0  0  0
    6.0300    1.3550  -10.3270 C   0  0  0  0  0  0  0  0  0  0  0  0
    1.2210    0.6350   -0.0590 H   0  0  0  0  0  0  0  0  0  0  0  0
   -0.2040   -1.6730   -3.6580 H   0  0  0  0  0  0  0  0  0  0  0  0
   -1.0240   -0.1060   -3.8550 H   0  0  0  0  0  0  0  0  0  0  0  0
   -2.7540   -0.8850   -2.6000 H   0  0  0  0  0  0  0  0  0  0  0  0
   -1.8910   -2.4180   -2.3270 H   0  0  0  0  0  0  0  0  0  0  0  0
   -1.8870   -0.8040    1.4190 H   0  0  0  0  0  0  0  0  0  0  0  0
    1.7700    1.3390    2.0340 H   0  0  0  0  0  0  0  0  0  0  0  0
   -2.3730   -0.6420    3.8340 H   0  0  0  0  0  0  0  0  0  0  0  0
    1.2790    1.4960    4.4450 H   0  0  0  0  0  0  0  0  0  0  0  0
    1.0490    0.7930   -4.5590 H   0  0  0  0  0  0  0  0  0  0  0  0
    1.8260   -0.7910   -4.3200 H   0  0  0  0  0  0  0  0  0  0  0  0
    3.9160    0.3070   -3.8400 H   0  0  0  0  0  0  0  0  0  0  0  0
    3.1390    1.8900   -4.0790 H   0  0  0  0  0  0  0  0  0  0  0  0
    3.4470   -0.2740   -6.1590 H   0  0  0  0  0  0  0  0  0  0  0  0
    2.6710    1.3100   -6.3990 H   0  0  0  0  0  0  0  0  0  0  0  0
    3.4230    0.3700   -8.3850 H   0  0  0  0  0  0  0  0  0  0  0  0
    7.0590    2.3360   -7.2440 H   0  0  0  0  0  0  0  0  0  0  0  0
    4.1670    0.3750  -10.7440 H   0  0  0  0  0  0  0  0  0  0  0  0
    7.7980    2.3380   -9.6080 H   0  0  0  0  0  0  0  0  0  0  0  0
    6.3520    1.3540  -11.3580 H   0  0  0  0  0  0  0  0  0  0  0  0
  1  2  1  0  0  0  0
  1  3  2  0  0  0  0
  1  5  1  0  0  0  0
  2  4  1  0  0  0  0
  2 10  1  0  0  0  0
  3 12  1  0  0  0  0
  4  7  2  0  0  0  0
  4 19  1  0  0  0  0
  5 11  1  0  0  0  0
  5 27  1  0  0  0  0
  6  8  2  0  0  0  0
  6  9  1  0  0  0  0
  6 21  1  0  0  0  0
  9 22  2  0  0  0  0
  9 23  1  0  0  0  0
 10 12  1  0  0  0  0
 10 28  1  0  0  0  0
 10 29  1  0  0  0  0
 11 15  2  0  0  0  0
 11 16  1  0  0  0  0
 12 30  1  0  0  0  0
 12 31  1  0  0  0  0
 13 14  1  0  0  0  0
 13 17  2  0  0  0  0
 13 18  1  0  0  0  0
 15 17  1  0  0  0  0
 15 32  1  0  0  0  0
 16 18  2  0  0  0  0
 16 33  1  0  0  0  0
 17 34  1  0  0  0  0
 18 35  1  0  0  0  0
 19 20  1  0  0  0  0
 19 36  1  0  0  0  0
 19 37  1  0  0  0  0
 20 21  1  0  0  0  0
 20 38  1  0  0  0  0
 20 39  1  0  0  0  0
 21 40  1  0  0  0  0
 21 41  1  0  0  0  0
 22 24  1  0  0  0  0
 22 42  1  0  0  0  0
 23 25  2  0  0  0  0
 23 43  1  0  0  0  0
 24 26  2  0  0  0  0
 24 44  1  0  0  0  0
 25 26  1  0  0  0  0
 25 45  1  0  0  0  0
 26 46  1  0  0  0  0
M  END
>  <$CLUSTER>
298

>  <INDEX>
188799

$$$$
Cerep CER0131510
  MOE2020           3D

 54 56  0  0  0  0  0  0  0  0999 V2000
   -1.5010    0.3060   -2.3230 C   0  0  0  0  0  0  0  0  0  0  0  0
   -0.9820    0.2830   -1.0830 N   0  0  0  0  0  0  0  0  0  0  0  0
    0.9820   -0.2830    1.0830 N   0  0  0  0  0  0  0  0  0  0  0  0
    1.4810   -0.3080    2.3380 C   0  0  0  0  0  0  0  0  0  0  0  0
   -2.4780   -0.6350   -2.5760 N   0  0  0  0  0  0  0  0  0  0  0  0
   -3.8350    0.1570   -7.2830 C   0  0  0  0  0  0  0  0  0  0  0  0
   -3.9300   -0.5720   -5.9980 C   0  0  0  0  0  0  0  0  0  0  0  0
    4.5600   -0.1550    5.7210 C   0  0  0  0  0  0  0  0  0  0  0  0
    2.4490    0.8110    2.6950 C   0  0  0  0  0  0  0  0  0  0  0  0
   -1.1660    1.1080   -3.1980 O   0  0  0  0  0  0  0  0  0  0  0  0
   -0.0330    1.3000   -0.5920 C   0  0  0  0  0  0  0  0  0  0  0  0
   -1.2520   -0.6880   -0.0050 C   0  0  0  0  0  0  0  0  0  0  0  0
    0.0330   -1.3000    0.5920 C   0  0  0  0  0  0  0  0  0  0  0  0
    1.2520    0.6880    0.0050 C   0  0  0  0  0  0  0  0  0  0  0  0
    3.8640    0.4660    6.7560 C   0  0  0  0  0  0  0  0  0  0  0  0
   -3.2480   -0.9380   -3.7000 C   0  0  0  0  0  0  0  0  0  0  0  0
    1.1880   -1.1710    3.1690 O   0  0  0  0  0  0  0  0  0  0  0  0
   -3.1340   -0.2300   -4.9000 C   0  0  0  0  0  0  0  0  0  0  0  0
    4.1060   -0.0390    4.4070 C   0  0  0  0  0  0  0  0  0  0  0  0
    2.9610    0.7090    4.1230 C   0  0  0  0  0  0  0  0  0  0  0  0
   -4.5060   -0.1030   -8.2690 O   0  0  0  0  0  0  0  0  0  0  0  0
    2.7140    1.2010    6.4790 C   0  0  0  0  0  0  0  0  0  0  0  0
    5.6490   -0.8410    6.0710 F   0  0  0  0  0  0  0  0  0  0  0  0
    2.2590    1.3170    5.1650 C   0  0  0  0  0  0  0  0  0  0  0  0
   -2.9130    1.1460   -7.2360 O   0  0  0  0  0  0  0  0  0  0  0  0
    4.3660    0.3080    7.9820 F   0  0  0  0  0  0  0  0  0  0  0  0
   -4.8440   -1.6190   -5.9090 C   0  0  0  0  0  0  0  0  0  0  0  0
   -4.9650   -2.3300   -4.7190 C   0  0  0  0  0  0  0  0  0  0  0  0
   -4.1720   -1.9910   -3.6210 C   0  0  0  0  0  0  0  0  0  0  0  0
   -2.7190    1.9290   -8.4060 C   0  0  0  0  0  0  0  0  0  0  0  0
   -1.6490    2.9660   -8.1320 C   0  0  0  0  0  0  0  0  0  0  0  0
   -2.6770   -1.2280   -1.7830 H   0  0  0  0  0  0  0  0  0  0  0  0
    1.9380    1.7660    2.5750 H   0  0  0  0  0  0  0  0  0  0  0  0
    3.3000    0.7660    2.0150 H   0  0  0  0  0  0  0  0  0  0  0  0
   -0.5260    1.8920    0.1790 H   0  0  0  0  0  0  0  0  0  0  0  0
    0.2450    1.9470   -1.4240 H   0  0  0  0  0  0  0  0  0  0  0  0
   -1.8650   -1.4940   -0.4090 H   0  0  0  0  0  0  0  0  0  0  0  0
   -1.7970   -0.1810    0.7910 H   0  0  0  0  0  0  0  0  0  0  0  0
   -0.2450   -1.9470    1.4240 H   0  0  0  0  0  0  0  0  0  0  0  0
    0.5260   -1.8920   -0.1790 H   0  0  0  0  0  0  0  0  0  0  0  0
    1.7970    0.1810   -0.7910 H   0  0  0  0  0  0  0  0  0  0  0  0
    1.8650    1.4940    0.4090 H   0  0  0  0  0  0  0  0  0  0  0  0
   -2.4290    0.5840   -4.9800 H   0  0  0  0  0  0  0  0  0  0  0  0
    4.6410   -0.5290    3.6070 H   0  0  0  0  0  0  0  0  0  0  0  0
    2.1740    1.6810    7.2820 H   0  0  0  0  0  0  0  0  0  0  0  0
    1.3610    1.8790    4.9540 H   0  0  0  0  0  0  0  0  0  0  0  0
   -5.4560   -1.8780   -6.7600 H   0  0  0  0  0  0  0  0  0  0  0  0
   -5.6720   -3.1430   -4.6450 H   0  0  0  0  0  0  0  0  0  0  0  0
   -4.2710   -2.5460   -2.7000 H   0  0  0  0  0  0  0  0  0  0  0  0
   -3.6510    2.4270   -8.6720 H   0  0  0  0  0  0  0  0  0  0  0  0
   -2.4040    1.2860   -9.2280 H   0  0  0  0  0  0  0  0  0  0  0  0
   -1.9670    3.6070   -7.3100 H   0  0  0  0  0  0  0  0  0  0  0  0
   -1.4920    3.5710   -9.0250 H   0  0  0  0  0  0  0  0  0  0  0  0
   -0.7180    2.4660   -7.8640 H   0  0  0  0  0  0  0  0  0  0  0  0
  1  2  1  0  0  0  0
  1  5  1  0  0  0  0
  1 10  2  0  0  0  0
  2 11  1  0  0  0  0
  2 12  1  0  0  0  0
  3  4  1  0  0  0  0
  3 13  1  0  0  0  0
  3 14  1  0  0  0  0
  4  9  1  0  0  0  0
  4 17  2  0  0  0  0
  5 16  1  0  0  0  0
  5 32  1  0  0  0  0
  6  7  1  0  0  0  0
  6 21  2  0  0  0  0
  6 25  1  0  0  0  0
  7 18  2  0  0  0  0
  7 27  1  0  0  0  0
  8 15  1  0  0  0  0
  8 19  2  0  0  0  0
  8 23  1  0  0  0  0
  9 20  1  0  0  0  0
  9 33  1  0  0  0  0
  9 34  1  0  0  0  0
 11 14  1  0  0  0  0
 11 35  1  0  0  0  0
 11 36  1  0  0  0  0
 12 13  1  0  0  0  0
 12 37  1  0  0  0  0
 12 38  1  0  0  0  0
 13 39  1  0  0  0  0
 13 40  1  0  0  0  0
 14 41  1  0  0  0  0
 14 42  1  0  0  0  0
 15 22  2  0  0  0  0
 15 26  1  0  0  0  0
 16 18  1  0  0  0  0
 16 29  2  0  0  0  0
 18 43  1  0  0  0  0
 19 20  1  0  0  0  0
 19 44  1  0  0  0  0
 20 24  2  0  0  0  0
 22 24  1  0  0  0  0
 22 45  1  0  0  0  0
 24 46  1  0  0  0  0
 25 30  1  0  0  0  0
 27 28  2  0  0  0  0
 27 47  1  0  0  0  0
 28 29  1  0  0  0  0
 28 48  1  0  0  0  0
 29 49  1  0  0  0  0
 30 31  1  0  0  0  0
 30 50  1  0  0  0  0
 30 51  1  0  0  0  0
 31 52  1  0  0  0  0
 31 53  1  0  0  0  0
 31 54  1  0  0  0  0
M  END
>  <$CLUSTER>
299

>  <INDEX>
189017

$$$$
Cerep CER0136128
  MOE2020           3D

 35 36  0  0  0  0  0  0  0  0999 V2000
   -1.7240    0.4990    0.5430 C   0  0  0  0  0  0  0  0  0  0  0  0
   -0.3500    0.5190    0.0370 C   0  0  0  0  0  0  0  0  0  0  0  0
   -2.0590    1.5080    1.3900 N   0  0  0  0  0  0  0  0  0  0  0  0
    0.4130   -0.6430   -0.0470 C   0  0  0  0  0  0  0  0  0  0  0  0
    1.6850   -0.6660   -0.5350 N   0  0  0  0  0  0  0  0  0  0  0  0
   -2.5230   -0.3670    0.2030 O   0  0  0  0  0  0  0  0  0  0  0  0
   -0.1200   -1.8350    0.4330 O   0  0  0  0  0  0  0  0  0  0  0  0
    0.2170    1.7180   -0.4080 C   0  0  0  0  0  0  0  0  0  0  0  0
   -3.4260    1.6010    1.9680 C   0  0  0  0  0  0  0  0  0  0  0  0
   -1.1740    2.6010    1.8540 C   0  0  0  0  0  0  0  0  0  0  0  0
    2.2040    0.5150   -0.9560 C   0  0  0  0  0  0  0  0  0  0  0  0
    0.7410   -2.9650    0.2520 C   0  0  0  0  0  0  0  0  0  0  0  0
    1.5160    1.7180   -0.9120 C   0  0  0  0  0  0  0  0  0  0  0  0
   -4.0630    2.9430    1.6150 C   0  0  0  0  0  0  0  0  0  0  0  0
   -1.7730    3.9620    1.5000 C   0  0  0  0  0  0  0  0  0  0  0  0
    0.0790   -4.2000    0.8010 C   0  0  0  0  0  0  0  0  0  0  0  0
   -3.1910    4.1210    2.0370 C   0  0  0  0  0  0  0  0  0  0  0  0
   -0.3480    2.6370   -0.3610 H   0  0  0  0  0  0  0  0  0  0  0  0
   -3.3650    1.5070    3.0520 H   0  0  0  0  0  0  0  0  0  0  0  0
   -4.0410    0.7950    1.5670 H   0  0  0  0  0  0  0  0  0  0  0  0
   -0.2000    2.5020    1.3740 H   0  0  0  0  0  0  0  0  0  0  0  0
   -1.0550    2.5320    2.9350 H   0  0  0  0  0  0  0  0  0  0  0  0
    3.2100    0.5180   -1.3480 H   0  0  0  0  0  0  0  0  0  0  0  0
    1.6800   -2.7930    0.7780 H   0  0  0  0  0  0  0  0  0  0  0  0
    0.9400   -3.1020   -0.8110 H   0  0  0  0  0  0  0  0  0  0  0  0
    1.9750    2.6320   -1.2590 H   0  0  0  0  0  0  0  0  0  0  0  0
   -5.0250    3.0190    2.1210 H   0  0  0  0  0  0  0  0  0  0  0  0
   -4.2150    2.9870    0.5370 H   0  0  0  0  0  0  0  0  0  0  0  0
   -1.7940    4.0650    0.4150 H   0  0  0  0  0  0  0  0  0  0  0  0
   -1.1450    4.7440    1.9270 H   0  0  0  0  0  0  0  0  0  0  0  0
   -0.1200   -4.0630    1.8640 H   0  0  0  0  0  0  0  0  0  0  0  0
    0.7370   -5.0570    0.6620 H   0  0  0  0  0  0  0  0  0  0  0  0
   -0.8600   -4.3740    0.2750 H   0  0  0  0  0  0  0  0  0  0  0  0
   -3.1580    4.1700    3.1250 H   0  0  0  0  0  0  0  0  0  0  0  0
   -3.6210    5.0430    1.6450 H   0  0  0  0  0  0  0  0  0  0  0  0
  1  2  1  0  0  0  0
  1  3  1  0  0  0  0
  1  6  2  0  0  0  0
  2  4  2  0  0  0  0
  2  8  1  0  0  0  0
  3  9  1  0  0  0  0
  3 10  1  0  0  0  0
  4  5  1  0  0  0  0
  4  7  1  0  0  0  0
  5 11  2  0  0  0  0
  7 12  1  0  0  0  0
  8 13  2  0  0  0  0
  8 18  1  0  0  0  0
  9 14  1  0  0  0  0
  9 19  1  0  0  0  0
  9 20  1  0  0  0  0
 10 15  1  0  0  0  0
 10 21  1  0  0  0  0
 10 22  1  0  0  0  0
 11 13  1  0  0  0  0
 11 23  1  0  0  0  0
 12 16  1  0  0  0  0
 12 24  1  0  0  0  0
 12 25  1  0  0  0  0
 13 26  1  0  0  0  0
 14 17  1  0  0  0  0
 14 27  1  0  0  0  0
 14 28  1  0  0  0  0
 15 17  1  0  0  0  0
 15 29  1  0  0  0  0
 15 30  1  0  0  0  0
 16 31  1  0  0  0  0
 16 32  1  0  0  0  0
 16 33  1  0  0  0  0
 17 34  1  0  0  0  0
 17 35  1  0  0  0  0
M  END
>  <$CLUSTER>
300

>  <INDEX>
189365

$$$$
Cerep CER0136478
  MOE2020           3D

 64 67  0  0  1  0  0  0  0  0999 V2000
    2.8550    0.8140    1.5090 C   0  0  0  0  0  0  0  0  0  0  0  0
    1.5540    0.7190    1.1130 N   0  0  0  0  0  0  0  0  0  0  0  0
    3.2560    0.0030    2.7150 C   0  0  3  0  0  0  0  0  0  0  0  0
    3.2560   -1.5230    2.3660 C   0  0  3  0  0  0  0  0  0  0  0  0
   -0.6200   -0.4140   -0.5550 C   0  0  0  0  0  0  0  0  0  0  0  0
    3.1580   -2.3850    3.6280 C   0  0  0  0  0  0  0  0  0  0  0  0
   -1.1540   -2.2960   -2.3620 N   0  0  0  0  0  0  0  0  0  0  0  0
   -0.9410   -1.4970   -1.5990 C   0  0  0  0  0  0  0  0  0  0  0  0
    3.7020    1.5120    0.9440 O   0  0  0  0  0  0  0  0  0  0  0  0
    1.0510    1.4620   -0.0460 C   0  0  0  0  0  0  0  0  0  0  0  0
    0.4950   -0.0850    1.7300 C   0  0  0  0  0  0  0  0  0  0  0  0
   -0.1010   -1.0840    0.7370 C   0  0  0  0  0  0  0  0  0  0  0  0
    0.4770    0.5230   -1.1080 C   0  0  0  0  0  0  0  0  0  0  0  0
    4.0980   -3.0290    4.0880 O   0  0  0  0  0  0  0  0  0  0  0  0
   -1.9150    0.3750   -0.2730 C   0  0  0  0  0  0  0  0  0  0  0  0
    1.9090   -2.3670    4.2070 N   0  0  0  0  0  0  0  0  0  0  0  0
    5.7800   -0.1670    2.7870 C   0  0  0  0  0  0  0  0  0  0  0  0
    5.7520   -1.1970    1.9320 C   0  0  0  0  0  0  0  0  0  0  0  0
    4.5480    0.4330    3.3940 C   0  0  0  0  0  0  0  0  0  0  0  0
    4.4880   -1.8860    1.5150 C   0  0  0  0  0  0  0  0  0  0  0  0
    1.5460   -3.0880    5.3970 C   0  0  0  0  0  0  0  0  0  0  0  0
    0.7340   -5.2880    6.3260 C   0  0  0  0  0  0  0  0  0  0  0  0
    1.1330   -4.5130    5.0790 C   0  0  0  0  0  0  0  0  0  0  0  0
   -3.0600   -0.3120    0.2710 C   0  0  0  0  0  0  0  0  0  0  0  0
   -2.0720    1.7560   -0.4500 C   0  0  0  0  0  0  0  0  0  0  0  0
   -0.5890   -5.2660    6.7770 C   0  0  0  0  0  0  0  0  0  0  0  0
    1.6970   -5.9910    7.0550 C   0  0  0  0  0  0  0  0  0  0  0  0
   -3.2630    2.4230   -0.1570 C   0  0  0  0  0  0  0  0  0  0  0  0
   -4.2500    0.3550    0.5640 C   0  0  0  0  0  0  0  0  0  0  0  0
   -0.9480   -5.9580    7.9340 C   0  0  0  0  0  0  0  0  0  0  0  0
    1.3350   -6.6830    8.2120 C   0  0  0  0  0  0  0  0  0  0  0  0
   -4.3530    1.7230    0.3500 C   0  0  0  0  0  0  0  0  0  0  0  0
    0.0140   -6.6670    8.6500 C   0  0  0  0  0  0  0  0  0  0  0  0
    2.4940    0.2050    3.4680 H   0  0  0  0  0  0  0  0  0  0  0  0
    2.3690   -1.7360    1.7690 H   0  0  0  0  0  0  0  0  0  0  0  0
    1.8700    2.0330   -0.4830 H   0  0  0  0  0  0  0  0  0  0  0  0
    0.2680    2.1450    0.2840 H   0  0  0  0  0  0  0  0  0  0  0  0
   -0.2950    0.5790    2.0810 H   0  0  0  0  0  0  0  0  0  0  0  0
    0.9130   -0.6320    2.5750 H   0  0  0  0  0  0  0  0  0  0  0  0
    0.6680   -1.8080    0.4680 H   0  0  0  0  0  0  0  0  0  0  0  0
   -0.9320   -1.5990    1.2190 H   0  0  0  0  0  0  0  0  0  0  0  0
    0.0480    1.1250   -1.9090 H   0  0  0  0  0  0  0  0  0  0  0  0
    1.2870   -0.0880   -1.5060 H   0  0  0  0  0  0  0  0  0  0  0  0
    1.1960   -1.8060    3.7630 H   0  0  0  0  0  0  0  0  0  0  0  0
    6.7390    0.2530    3.0530 H   0  0  0  0  0  0  0  0  0  0  0  0
    6.6870   -1.5490    1.5220 H   0  0  0  0  0  0  0  0  0  0  0  0
    4.5010    0.1350    4.4410 H   0  0  0  0  0  0  0  0  0  0  0  0
    4.6260    1.5180    3.3280 H   0  0  0  0  0  0  0  0  0  0  0  0
    4.2790   -1.6170    0.4800 H   0  0  0  0  0  0  0  0  0  0  0  0
    4.6470   -2.9620    1.5860 H   0  0  0  0  0  0  0  0  0  0  0  0
    0.7130   -2.5770    5.8800 H   0  0  0  0  0  0  0  0  0  0  0  0
    2.4010   -3.1090    6.0730 H   0  0  0  0  0  0  0  0  0  0  0  0
    1.9700   -5.0230    4.6020 H   0  0  0  0  0  0  0  0  0  0  0  0
    0.2850   -4.4880    4.3950 H   0  0  0  0  0  0  0  0  0  0  0  0
   -2.9950   -1.3740    0.4570 H   0  0  0  0  0  0  0  0  0  0  0  0
   -1.2380    2.3280   -0.8290 H   0  0  0  0  0  0  0  0  0  0  0  0
   -1.3360   -4.7110    6.2280 H   0  0  0  0  0  0  0  0  0  0  0  0
    2.7240   -5.9990    6.7220 H   0  0  0  0  0  0  0  0  0  0  0  0
   -3.3380    3.4870   -0.3250 H   0  0  0  0  0  0  0  0  0  0  0  0
   -5.0930   -0.1940    0.9580 H   0  0  0  0  0  0  0  0  0  0  0  0
   -1.9730   -5.9440    8.2750 H   0  0  0  0  0  0  0  0  0  0  0  0
    2.0810   -7.2320    8.7680 H   0  0  0  0  0  0  0  0  0  0  0  0
   -5.2740    2.2400    0.5760 H   0  0  0  0  0  0  0  0  0  0  0  0
   -0.2650   -7.2040    9.5450 H   0  0  0  0  0  0  0  0  0  0  0  0
  1  2  1  0  0  0  0
  1  3  1  0  0  0  0
  1  9  2  0  0  0  0
  2 10  1  0  0  0  0
  2 11  1  0  0  0  0
  3  4  1  0  0  0  0
  3 19  1  0  0  0  0
  3 34  1  0  0  0  0
  4  6  1  0  0  0  0
  4 20  1  0  0  0  0
  4 35  1  0  0  0  0
  5  8  1  0  0  0  0
  5 12  1  0  0  0  0
  5 13  1  0  0  0  0
  5 15  1  0  0  0  0
  6 14  2  0  0  0  0
  6 16  1  0  0  0  0
  7  8  3  0  0  0  0
 10 13  1  0  0  0  0
 10 36  1  0  0  0  0
 10 37  1  0  0  0  0
 11 12  1  0  0  0  0
 11 38  1  0  0  0  0
 11 39  1  0  0  0  0
 12 40  1  0  0  0  0
 12 41  1  0  0  0  0
 13 42  1  0  0  0  0
 13 43  1  0  0  0  0
 15 24  1  0  0  0  0
 15 25  2  0  0  0  0
 16 21  1  0  0  0  0
 16 44  1  0  0  0  0
 17 18  2  0  0  0  0
 17 19  1  0  0  0  0
 17 45  1  0  0  0  0
 18 20  1  0  0  0  0
 18 46  1  0  0  0  0
 19 47  1  0  0  0  0
 19 48  1  0  0  0  0
 20 49  1  0  0  0  0
 20 50  1  0  0  0  0
 21 23  1  0  0  0  0
 21 51  1  0  0  0  0
 21 52  1  0  0  0  0
 22 23  1  0  0  0  0
 22 26  2  0  0  0  0
 22 27  1  0  0  0  0
 23 53  1  0  0  0  0
 23 54  1  0  0  0  0
 24 29  2  0  0  0  0
 24 55  1  0  0  0  0
 25 28  1  0  0  0  0
 25 56  1  0  0  0  0
 26 30  1  0  0  0  0
 26 57  1  0  0  0  0
 27 31  2  0  0  0  0
 27 58  1  0  0  0  0
 28 32  2  0  0  0  0
 28 59  1  0  0  0  0
 29 32  1  0  0  0  0
 29 60  1  0  0  0  0
 30 33  2  0  0  0  0
 30 61  1  0  0  0  0
 31 33  1  0  0  0  0
 31 62  1  0  0  0  0
 32 63  1  0  0  0  0
 33 64  1  0  0  0  0
M  END
>  <$CLUSTER>
301

>  <INDEX>
189515

$$$$
Cerep CER0136590
  MOE2020           3D

 67 70  0  0  1  0  0  0  0  0999 V2000
   -0.1400   -2.2960   -2.1640 C   0  0  0  0  0  0  0  0  0  0  0  0
   -0.2100   -1.5620   -1.0230 N   0  0  0  0  0  0  0  0  0  0  0  0
    1.0890   -3.1510   -2.3440 C   0  0  3  0  0  0  0  0  0  0  0  0
    2.4740   -4.9240   -1.1260 C   0  0  0  0  0  0  0  0  0  0  0  0
    1.0720   -4.3440   -1.3310 C   0  0  3  0  0  0  0  0  0  0  0  0
    0.0510    0.8220    0.6960 N   0  3  0  0  0  0  0  0  0  0  0  0
    3.2980   -4.1100   -0.3800 N   0  0  0  0  0  0  0  0  0  0  0  0
   -1.0090   -2.2990   -3.0400 O   0  0  0  0  0  0  0  0  0  0  0  0
   -1.3610   -0.6890   -0.7360 C   0  0  0  0  0  0  0  0  0  0  0  0
    0.7800   -1.5030    0.0660 C   0  0  0  0  0  0  0  0  0  0  0  0
    2.8380   -6.0060   -1.5820 O   0  0  0  0  0  0  0  0  0  0  0  0
    0.4550    2.2220    1.0390 C   0  0  0  0  0  0  0  0  0  0  0  0
    0.6350   -4.8700   -4.1460 C   0  0  0  0  0  0  0  0  0  0  0  0
    1.2470   -0.0640    0.3930 C   0  0  0  0  0  0  0  0  0  0  0  0
   -0.9610    0.7750   -0.4350 C   0  0  0  0  0  0  0  0  0  0  0  0
    0.0400   -5.6720   -3.2550 C   0  0  0  0  0  0  0  0  0  0  0  0
    4.6610   -4.4150   -0.0390 C   0  0  0  0  0  0  0  0  0  0  0  0
    1.3630   -3.6150   -3.7670 C   0  0  0  0  0  0  0  0  0  0  0  0
    4.9220   -6.6610    1.1230 C   0  0  0  0  0  0  0  0  0  0  0  0
    4.7430   -5.2690    1.2120 C   0  0  0  0  0  0  0  0  0  0  0  0
    5.0020   -7.4440    2.2780 C   0  0  0  0  0  0  0  0  0  0  0  0
    0.0630   -5.4210   -1.7770 C   0  0  0  0  0  0  0  0  0  0  0  0
    1.1500    2.3060    2.3890 C   0  0  0  0  0  0  0  0  0  0  0  0
    5.1810   -8.8080    2.3010 O   0  0  0  0  0  0  0  0  0  0  0  0
    4.7150   -5.4680    3.6390 C   0  0  0  0  0  0  0  0  0  0  0  0
    4.6340   -4.6840    2.4860 C   0  0  0  0  0  0  0  0  0  0  0  0
    4.9010   -6.8470    3.5350 C   0  0  0  0  0  0  0  0  0  0  0  0
    0.4020    2.4870    3.5550 C   0  0  0  0  0  0  0  0  0  0  0  0
    2.5350    2.1350    2.4770 C   0  0  0  0  0  0  0  0  0  0  0  0
    5.2930   -9.4680    1.0450 C   0  0  0  0  0  0  0  0  0  0  0  0
    1.0380    2.5310    4.7960 C   0  0  0  0  0  0  0  0  0  0  0  0
    3.1680    2.1800    3.7200 C   0  0  0  0  0  0  0  0  0  0  0  0
    2.4200    2.3790    4.8780 C   0  0  0  0  0  0  0  0  0  0  0  0
    1.9330   -2.4970   -2.1240 H   0  0  0  0  0  0  0  0  0  0  0  0
    0.7440   -3.9640   -0.3630 H   0  0  0  0  0  0  0  0  0  0  0  0
   -0.4000    0.4520    1.5210 H   0  0  0  0  0  0  0  0  0  0  0  0
    2.9170   -3.2350   -0.0490 H   0  0  0  0  0  0  0  0  0  0  0  0
   -1.8900   -1.0880    0.1300 H   0  0  0  0  0  0  0  0  0  0  0  0
   -2.0240   -0.6950   -1.6010 H   0  0  0  0  0  0  0  0  0  0  0  0
    1.6500   -2.0910   -0.2260 H   0  0  0  0  0  0  0  0  0  0  0  0
    0.3340   -1.9340    0.9620 H   0  0  0  0  0  0  0  0  0  0  0  0
   -0.4370    2.8480    1.0640 H   0  0  0  0  0  0  0  0  0  0  0  0
    1.1350    2.5890    0.2710 H   0  0  0  0  0  0  0  0  0  0  0  0
    0.5880   -5.1400   -5.1910 H   0  0  0  0  0  0  0  0  0  0  0  0
    1.9060   -0.0880    1.2610 H   0  0  0  0  0  0  0  0  0  0  0  0
    1.7880    0.3420   -0.4620 H   0  0  0  0  0  0  0  0  0  0  0  0
   -0.5230    1.2190   -1.3290 H   0  0  0  0  0  0  0  0  0  0  0  0
   -1.8490    1.3390   -0.1470 H   0  0  0  0  0  0  0  0  0  0  0  0
   -0.4830   -6.5440   -3.6190 H   0  0  0  0  0  0  0  0  0  0  0  0
    5.2000   -3.4830    0.1320 H   0  0  0  0  0  0  0  0  0  0  0  0
    5.1210   -4.9540   -0.8670 H   0  0  0  0  0  0  0  0  0  0  0  0
    2.4330   -3.7940   -3.8700 H   0  0  0  0  0  0  0  0  0  0  0  0
    1.0600   -2.8220   -4.4510 H   0  0  0  0  0  0  0  0  0  0  0  0
    4.9980   -7.1290    0.1530 H   0  0  0  0  0  0  0  0  0  0  0  0
   -0.9330   -5.1030   -1.4690 H   0  0  0  0  0  0  0  0  0  0  0  0
    0.3170   -6.3550   -1.2760 H   0  0  0  0  0  0  0  0  0  0  0  0
    4.6340   -5.0060    4.6120 H   0  0  0  0  0  0  0  0  0  0  0  0
    4.4860   -3.6180    2.5740 H   0  0  0  0  0  0  0  0  0  0  0  0
    4.9670   -7.4520    4.4270 H   0  0  0  0  0  0  0  0  0  0  0  0
   -0.6710    2.5930    3.4960 H   0  0  0  0  0  0  0  0  0  0  0  0
    3.1160    1.9680    1.5820 H   0  0  0  0  0  0  0  0  0  0  0  0
    5.4300  -10.5370    1.2070 H   0  0  0  0  0  0  0  0  0  0  0  0
    6.1490   -9.0700    0.5010 H   0  0  0  0  0  0  0  0  0  0  0  0
    4.3850   -9.3020    0.4650 H   0  0  0  0  0  0  0  0  0  0  0  0
    0.4580    2.6830    5.6940 H   0  0  0  0  0  0  0  0  0  0  0  0
    4.2390    2.0600    3.7840 H   0  0  0  0  0  0  0  0  0  0  0  0
    2.9110    2.4150    5.8390 H   0  0  0  0  0  0  0  0  0  0  0  0
  1  2  1  0  0  0  0
  1  3  1  0  0  0  0
  1  8  2  0  0  0  0
  2  9  1  0  0  0  0
  2 10  1  0  0  0  0
  3  5  1  0  0  0  0
  3 18  1  0  0  0  0
  3 34  1  0  0  0  0
  4  5  1  0  0  0  0
  4  7  1  0  0  0  0
  4 11  2  0  0  0  0
  5 22  1  0  0  0  0
  5 35  1  0  0  0  0
  6 12  1  0  0  0  0
  6 14  1  0  0  0  0
  6 15  1  0  0  0  0
  6 36  1  0  0  0  0
  7 17  1  0  0  0  0
  7 37  1  0  0  0  0
  9 15  1  0  0  0  0
  9 38  1  0  0  0  0
  9 39  1  0  0  0  0
 10 14  1  0  0  0  0
 10 40  1  0  0  0  0
 10 41  1  0  0  0  0
 12 23  1  0  0  0  0
 12 42  1  0  0  0  0
 12 43  1  0  0  0  0
 13 16  2  0  0  0  0
 13 18  1  0  0  0  0
 13 44  1  0  0  0  0
 14 45  1  0  0  0  0
 14 46  1  0  0  0  0
 15 47  1  0  0  0  0
 15 48  1  0  0  0  0
 16 22  1  0  0  0  0
 16 49  1  0  0  0  0
 17 20  1  0  0  0  0
 17 50  1  0  0  0  0
 17 51  1  0  0  0  0
 18 52  1  0  0  0  0
 18 53  1  0  0  0  0
 19 20  2  0  0  0  0
 19 21  1  0  0  0  0
 19 54  1  0  0  0  0
 20 26  1  0  0  0  0
 21 24  1  0  0  0  0
 21 27  2  0  0  0  0
 22 55  1  0  0  0  0
 22 56  1  0  0  0  0
 23 28  2  0  0  0  0
 23 29  1  0  0  0  0
 24 30  1  0  0  0  0
 25 26  2  0  0  0  0
 25 27  1  0  0  0  0
 25 57  1  0  0  0  0
 26 58  1  0  0  0  0
 27 59  1  0  0  0  0
 28 31  1  0  0  0  0
 28 60  1  0  0  0  0
 29 32  2  0  0  0  0
 29 61  1  0  0  0  0
 30 62  1  0  0  0  0
 30 63  1  0  0  0  0
 30 64  1  0  0  0  0
 31 33  2  0  0  0  0
 31 65  1  0  0  0  0
 32 33  1  0  0  0  0
 32 66  1  0  0  0  0
 33 67  1  0  0  0  0
M  CHG  1   6   1
M  END
>  <$CLUSTER>
302

>  <INDEX>
189564

$$$$
Asinex BAS 00854204
  MOE2020           3D

 42 44  0  0  0  0  0  0  0  0999 V2000
   -0.1400   -2.2960   -2.1640 C   0  0  0  0  0  0  0  0  0  0  0  0
   -0.2100   -1.5620   -1.0230 N   0  0  0  0  0  0  0  0  0  0  0  0
    0.0510    0.8220    0.6960 N   0  3  0  0  0  0  0  0  0  0  0  0
    1.0890   -3.1500   -2.3440 C   0  0  0  0  0  0  0  0  0  0  0  0
   -1.0100   -2.2990   -3.0410 O   0  0  0  0  0  0  0  0  0  0  0  0
   -1.3610   -0.6890   -0.7360 C   0  0  0  0  0  0  0  0  0  0  0  0
    0.7800   -1.5030    0.0660 C   0  0  0  0  0  0  0  0  0  0  0  0
    0.4550    2.2220    1.0390 C   0  0  0  0  0  0  0  0  0  0  0  0
    0.9870   -4.2750   -3.1640 C   0  0  0  0  0  0  0  0  0  0  0  0
    2.2930   -2.8260   -1.7330 C   0  0  0  0  0  0  0  0  0  0  0  0
    1.2470   -0.0640    0.3930 C   0  0  0  0  0  0  0  0  0  0  0  0
   -0.9610    0.7750   -0.4350 C   0  0  0  0  0  0  0  0  0  0  0  0
    3.3130   -4.7770   -2.7390 C   0  0  0  0  0  0  0  0  0  0  0  0
    2.1030   -5.0910   -3.3560 C   0  0  0  0  0  0  0  0  0  0  0  0
    3.4080   -3.6460   -1.9310 C   0  0  0  0  0  0  0  0  0  0  0  0
    4.9470   -6.0170   -3.0470 I   0  0  0  0  0  0  0  0  0  0  0  0
    1.1500    2.3060    2.3890 C   0  0  0  0  0  0  0  0  0  0  0  0
    0.4020    2.4870    3.5550 C   0  0  0  0  0  0  0  0  0  0  0  0
    2.5350    2.1350    2.4770 C   0  0  0  0  0  0  0  0  0  0  0  0
    1.0380    2.5310    4.7960 C   0  0  0  0  0  0  0  0  0  0  0  0
    3.1680    2.1800    3.7200 C   0  0  0  0  0  0  0  0  0  0  0  0
    2.4200    2.3790    4.8780 C   0  0  0  0  0  0  0  0  0  0  0  0
   -0.4000    0.4520    1.5210 H   0  0  0  0  0  0  0  0  0  0  0  0
   -1.8900   -1.0880    0.1300 H   0  0  0  0  0  0  0  0  0  0  0  0
   -2.0240   -0.6950   -1.6010 H   0  0  0  0  0  0  0  0  0  0  0  0
    1.6500   -2.0910   -0.2260 H   0  0  0  0  0  0  0  0  0  0  0  0
    0.3340   -1.9340    0.9620 H   0  0  0  0  0  0  0  0  0  0  0  0
   -0.4370    2.8480    1.0640 H   0  0  0  0  0  0  0  0  0  0  0  0
    1.1350    2.5890    0.2710 H   0  0  0  0  0  0  0  0  0  0  0  0
    0.0510   -4.5130   -3.6470 H   0  0  0  0  0  0  0  0  0  0  0  0
    2.3680   -1.9470   -1.1100 H   0  0  0  0  0  0  0  0  0  0  0  0
    1.9060   -0.0880    1.2610 H   0  0  0  0  0  0  0  0  0  0  0  0
    1.7880    0.3420   -0.4620 H   0  0  0  0  0  0  0  0  0  0  0  0
   -0.5230    1.2190   -1.3290 H   0  0  0  0  0  0  0  0  0  0  0  0
   -1.8490    1.3390   -0.1470 H   0  0  0  0  0  0  0  0  0  0  0  0
    2.0290   -5.9670   -3.9830 H   0  0  0  0  0  0  0  0  0  0  0  0
    4.3470   -3.4020   -1.4560 H   0  0  0  0  0  0  0  0  0  0  0  0
   -0.6710    2.5930    3.4960 H   0  0  0  0  0  0  0  0  0  0  0  0
    3.1160    1.9680    1.5820 H   0  0  0  0  0  0  0  0  0  0  0  0
    0.4580    2.6830    5.6940 H   0  0  0  0  0  0  0  0  0  0  0  0
    4.2390    2.0600    3.7840 H   0  0  0  0  0  0  0  0  0  0  0  0
    2.9110    2.4150    5.8390 H   0  0  0  0  0  0  0  0  0  0  0  0
  1  2  1  0  0  0  0
  1  4  1  0  0  0  0
  1  5  2  0  0  0  0
  2  6  1  0  0  0  0
  2  7  1  0  0  0  0
  3  8  1  0  0  0  0
  3 11  1  0  0  0  0
  3 12  1  0  0  0  0
  3 23  1  0  0  0  0
  4  9  2  0  0  0  0
  4 10  1  0  0  0  0
  6 12  1  0  0  0  0
  6 24  1  0  0  0  0
  6 25  1  0  0  0  0
  7 11  1  0  0  0  0
  7 26  1  0  0  0  0
  7 27  1  0  0  0  0
  8 17  1  0  0  0  0
  8 28  1  0  0  0  0
  8 29  1  0  0  0  0
  9 14  1  0  0  0  0
  9 30  1  0  0  0  0
 10 15  2  0  0  0  0
 10 31  1  0  0  0  0
 11 32  1  0  0  0  0
 11 33  1  0  0  0  0
 12 34  1  0  0  0  0
 12 35  1  0  0  0  0
 13 14  2  0  0  0  0
 13 15  1  0  0  0  0
 13 16  1  0  0  0  0
 14 36  1  0  0  0  0
 15 37  1  0  0  0  0
 17 18  2  0  0  0  0
 17 19  1  0  0  0  0
 18 20  1  0  0  0  0
 18 38  1  0  0  0  0
 19 21  2  0  0  0  0
 19 39  1  0  0  0  0
 20 22  2  0  0  0  0
 20 40  1  0  0  0  0
 21 22  1  0  0  0  0
 21 41  1  0  0  0  0
 22 42  1  0  0  0  0
M  CHG  1   3   1
M  END
>  <$CLUSTER>
303

>  <INDEX>
174674

$$$$
Chemstar CHS 1863390
  MOE2020           3D

 37 39  0  0  0  0  0  0  0  0999 V2000
    1.2820    0.5840   -1.0500 C   0  0  0  0  0  0  0  0  0  0  0  0
    0.2440   -0.0850   -0.2560 C   0  0  0  0  0  0  0  0  0  0  0  0
    2.5260    0.0500   -0.9470 N   0  0  0  0  0  0  0  0  0  0  0  0
    7.5460    1.3620   -3.2730 C   0  0  0  0  0  0  0  0  0  0  0  0
    6.2520    1.0080   -2.6670 C   0  0  0  0  0  0  0  0  0  0  0  0
   -0.5510    0.6010    0.6620 C   0  0  0  0  0  0  0  0  0  0  0  0
    1.0180    1.5420   -1.7690 O   0  0  0  0  0  0  0  0  0  0  0  0
    7.8300    2.5500   -3.4260 O   0  0  0  0  0  0  0  0  0  0  0  0
   10.4000   -1.5550   -4.5330 N   0  0  0  0  0  0  0  0  0  0  0  0
    8.5120    0.3310   -3.7000 C   0  0  0  0  0  0  0  0  0  0  0  0
    3.7540    0.3960   -1.5370 C   0  0  0  0  0  0  0  0  0  0  0  0
    5.1290    1.7660   -2.9930 C   0  0  0  0  0  0  0  0  0  0  0  0
    6.1340   -0.0550   -1.7780 C   0  0  0  0  0  0  0  0  0  0  0  0
   -0.3210    2.4400    1.0670 Br  0  0  0  0  0  0  0  0  0  0  0  0
    3.8850    1.4630   -2.4320 C   0  0  0  0  0  0  0  0  0  0  0  0
    4.8920   -0.3590   -1.2160 C   0  0  0  0  0  0  0  0  0  0  0  0
    0.0440   -1.4570   -0.4670 C   0  0  0  0  0  0  0  0  0  0  0  0
   10.7740   -0.3590   -4.0130 C   0  0  0  0  0  0  0  0  0  0  0  0
    9.0680   -1.7850   -4.6420 C   0  0  0  0  0  0  0  0  0  0  0  0
   -1.5470   -0.0870    1.3670 C   0  0  0  0  0  0  0  0  0  0  0  0
    8.0920   -0.8800   -4.2480 C   0  0  0  0  0  0  0  0  0  0  0  0
    9.8750    0.6100   -3.5910 C   0  0  0  0  0  0  0  0  0  0  0  0
   -0.9490   -2.1370    0.2380 C   0  0  0  0  0  0  0  0  0  0  0  0
   -1.7450   -1.4520    1.1530 C   0  0  0  0  0  0  0  0  0  0  0  0
    2.5790   -0.7470   -0.3290 H   0  0  0  0  0  0  0  0  0  0  0  0
    5.2200    2.5920   -3.6830 H   0  0  0  0  0  0  0  0  0  0  0  0
    7.0020   -0.6450   -1.5220 H   0  0  0  0  0  0  0  0  0  0  0  0
    3.0200    2.0560   -2.6910 H   0  0  0  0  0  0  0  0  0  0  0  0
    4.8070   -1.1850   -0.5260 H   0  0  0  0  0  0  0  0  0  0  0  0
    0.6600   -1.9880   -1.1770 H   0  0  0  0  0  0  0  0  0  0  0  0
   11.8300   -0.1500   -3.9230 H   0  0  0  0  0  0  0  0  0  0  0  0
    8.7480   -2.7280   -5.0600 H   0  0  0  0  0  0  0  0  0  0  0  0
   -2.1640    0.4410    2.0790 H   0  0  0  0  0  0  0  0  0  0  0  0
    7.0420   -1.1070   -4.3620 H   0  0  0  0  0  0  0  0  0  0  0  0
   10.2200    1.5520   -3.1900 H   0  0  0  0  0  0  0  0  0  0  0  0
   -1.1010   -3.1940    0.0750 H   0  0  0  0  0  0  0  0  0  0  0  0
   -2.5160   -1.9770    1.6970 H   0  0  0  0  0  0  0  0  0  0  0  0
  1  2  1  0  0  0  0
  1  3  1  0  0  0  0
  1  7  2  0  0  0  0
  2  6  2  0  0  0  0
  2 17  1  0  0  0  0
  3 11  1  0  0  0  0
  3 25  1  0  0  0  0
  4  5  1  0  0  0  0
  4  8  2  0  0  0  0
  4 10  1  0  0  0  0
  5 12  2  0  0  0  0
  5 13  1  0  0  0  0
  6 14  1  0  0  0  0
  6 20  1  0  0  0  0
  9 18  1  0  0  0  0
  9 19  2  0  0  0  0
 10 21  2  0  0  0  0
 10 22  1  0  0  0  0
 11 15  2  0  0  0  0
 11 16  1  0  0  0  0
 12 15  1  0  0  0  0
 12 26  1  0  0  0  0
 13 16  2  0  0  0  0
 13 27  1  0  0  0  0
 15 28  1  0  0  0  0
 16 29  1  0  0  0  0
 17 23  2  0  0  0  0
 17 30  1  0  0  0  0
 18 22  2  0  0  0  0
 18 31  1  0  0  0  0
 19 21  1  0  0  0  0
 19 32  1  0  0  0  0
 20 24  2  0  0  0  0
 20 33  1  0  0  0  0
 21 34  1  0  0  0  0
 22 35  1  0  0  0  0
 23 24  1  0  0  0  0
 23 36  1  0  0  0  0
 24 37  1  0  0  0  0
M  END
>  <$CLUSTER>
304

>  <INDEX>
196200

$$$$
Chembridge 5366957
  MOE2020           3D

 37 38  0  0  0  0  0  0  0  0999 V2000
   -3.4500    0.2490    0.5960 N   0  0  0  0  0  0  0  0  0  0  0  0
   -2.3320   -0.1900   -0.0460 C   0  0  0  0  0  0  0  0  0  0  0  0
   -3.5340    1.1680    1.7550 C   0  0  0  0  0  0  0  0  0  0  0  0
   -1.1960    0.3250    0.5070 N   0  0  0  0  0  0  0  0  0  0  0  0
   -2.5450   -1.2300   -1.3320 S   0  0  0  0  0  0  0  0  0  0  0  0
   -4.8770    1.4450    2.2130 C   0  0  0  0  0  0  0  0  0  0  0  0
   -2.4870    1.6070    2.2200 O   0  0  0  0  0  0  0  0  0  0  0  0
   -4.9760    1.8440    3.5640 C   0  0  0  0  0  0  0  0  0  0  0  0
   -6.0020    1.4040    1.4180 C   0  0  0  0  0  0  0  0  0  0  0  0
    0.1820    0.1930    0.2270 C   0  0  0  0  0  0  0  0  0  0  0  0
   -7.3640    2.1040    3.2910 C   0  0  0  0  0  0  0  0  0  0  0  0
    2.9780    0.0870   -0.1360 C   0  0  0  0  0  0  0  0  0  0  0  0
   -6.2270    2.1660    4.0950 C   0  0  0  0  0  0  0  0  0  0  0  0
   -7.2510    1.7260    1.9550 C   0  0  0  0  0  0  0  0  0  0  0  0
   -8.8830    2.4940    3.9550 Cl  0  0  0  0  0  0  0  0  0  0  0  0
    0.7410   -0.5810   -0.7910 C   0  0  0  0  0  0  0  0  0  0  0  0
    1.0530    0.9160    1.0630 C   0  0  0  0  0  0  0  0  0  0  0  0
    2.4390    0.8650    0.8850 C   0  0  0  0  0  0  0  0  0  0  0  0
    2.1290   -0.6340   -0.9720 C   0  0  0  0  0  0  0  0  0  0  0  0
    4.3120   -0.0490   -0.4170 O   0  0  0  0  0  0  0  0  0  0  0  0
    5.2260    0.6700    0.4120 C   0  0  0  0  0  0  0  0  0  0  0  0
    6.6320    0.3720   -0.0770 C   0  0  0  0  0  0  0  0  0  0  0  0
   -4.3300   -0.0940    0.2380 H   0  0  0  0  0  0  0  0  0  0  0  0
   -1.3820    0.9360    1.2900 H   0  0  0  0  0  0  0  0  0  0  0  0
   -4.0920    1.9000    4.1810 H   0  0  0  0  0  0  0  0  0  0  0  0
   -5.9180    1.1230    0.3790 H   0  0  0  0  0  0  0  0  0  0  0  0
   -6.3140    2.4630    5.1300 H   0  0  0  0  0  0  0  0  0  0  0  0
   -8.1320    1.6820    1.3320 H   0  0  0  0  0  0  0  0  0  0  0  0
    0.0960   -1.1460   -1.4470 H   0  0  0  0  0  0  0  0  0  0  0  0
    0.6430    1.5220    1.8570 H   0  0  0  0  0  0  0  0  0  0  0  0
    3.0900    1.4280    1.5380 H   0  0  0  0  0  0  0  0  0  0  0  0
    2.5440   -1.2380   -1.7650 H   0  0  0  0  0  0  0  0  0  0  0  0
    5.1180    0.3490    1.4480 H   0  0  0  0  0  0  0  0  0  0  0  0
    5.0280    1.7400    0.3410 H   0  0  0  0  0  0  0  0  0  0  0  0
    6.8230   -0.6990   -0.0030 H   0  0  0  0  0  0  0  0  0  0  0  0
    7.3520    0.9130    0.5370 H   0  0  0  0  0  0  0  0  0  0  0  0
    6.7300    0.6880   -1.1160 H   0  0  0  0  0  0  0  0  0  0  0  0
  1  2  1  0  0  0  0
  1  3  1  0  0  0  0
  1 23  1  0  0  0  0
  2  4  1  0  0  0  0
  2  5  2  0  0  0  0
  3  6  1  0  0  0  0
  3  7  2  0  0  0  0
  4 10  1  0  0  0  0
  4 24  1  0  0  0  0
  6  8  2  0  0  0  0
  6  9  1  0  0  0  0
  8 13  1  0  0  0  0
  8 25  1  0  0  0  0
  9 14  2  0  0  0  0
  9 26  1  0  0  0  0
 10 16  1  0  0  0  0
 10 17  2  0  0  0  0
 11 13  2  0  0  0  0
 11 14  1  0  0  0  0
 11 15  1  0  0  0  0
 12 18  2  0  0  0  0
 12 19  1  0  0  0  0
 12 20  1  0  0  0  0
 13 27  1  0  0  0  0
 14 28  1  0  0  0  0
 16 19  2  0  0  0  0
 16 29  1  0  0  0  0
 17 18  1  0  0  0  0
 17 30  1  0  0  0  0
 18 31  1  0  0  0  0
 19 32  1  0  0  0  0
 20 21  1  0  0  0  0
 21 22  1  0  0  0  0
 21 33  1  0  0  0  0
 21 34  1  0  0  0  0
 22 35  1  0  0  0  0
 22 36  1  0  0  0  0
 22 37  1  0  0  0  0
M  END
>  <$CLUSTER>
305

>  <INDEX>
43478

$$$$
Chemdiv 8006-9697
  MOE2020           3D

 47 49  0  0  0  0  0  0  0  0999 V2000
   -0.3750   -3.0040    4.0670 C   0  0  0  0  0  0  0  0  0  0  0  0
   -0.5790    0.1450    0.1350 N   0  0  0  0  0  0  0  0  0  0  0  0
   -1.4740    1.5620   -1.5690 C   0  0  0  0  0  0  0  0  0  0  0  0
   -0.6230   -3.8340    5.2540 N   0  0  0  0  0  0  0  0  0  0  0  0
   -1.4250   -2.4140    3.3670 C   0  0  0  0  0  0  0  0  0  0  0  0
   -0.3260    0.8830   -0.9750 N   0  0  0  0  0  0  0  0  0  0  0  0
   -1.0380    2.3480   -2.8040 C   0  0  0  0  0  0  0  0  0  0  0  0
    0.1590   -1.4260    1.8090 C   0  0  0  0  0  0  0  0  0  0  0  0
   -1.1580   -1.6260    2.2450 C   0  0  0  0  0  0  0  0  0  0  0  0
   -1.7900    3.3290   -4.8880 C   0  0  0  0  0  0  0  0  0  0  0  0
   -2.0730    2.5900   -3.7380 C   0  0  0  0  0  0  0  0  0  0  0  0
    0.4150   -0.5610    0.5970 C   0  0  0  0  0  0  0  0  0  0  0  0
    0.9400   -2.8060    3.6490 C   0  0  0  0  0  0  0  0  0  0  0  0
   -0.5080    3.8330   -5.0970 C   0  0  0  0  0  0  0  0  0  0  0  0
    1.2100   -2.0170    2.5250 C   0  0  0  0  0  0  0  0  0  0  0  0
   -2.6120    1.5400   -1.1870 O   0  0  0  0  0  0  0  0  0  0  0  0
    0.2140    2.8610   -3.0010 C   0  0  0  0  0  0  0  0  0  0  0  0
    0.4920    3.6020   -4.1540 C   0  0  0  0  0  0  0  0  0  0  0  0
   -2.6960   -2.5550    3.7040 F   0  0  0  0  0  0  0  0  0  0  0  0
   -2.6900    3.5970   -5.8360 F   0  0  0  0  0  0  0  0  0  0  0  0
   -0.3210    4.5250   -6.2220 F   0  0  0  0  0  0  0  0  0  0  0  0
    0.4800   -4.4570    5.9960 C   0  0  0  0  0  0  0  0  0  0  0  0
   -1.9880   -4.0720    5.7360 C   0  0  0  0  0  0  0  0  0  0  0  0
    1.8060   -0.6030    0.0040 C   0  0  0  0  0  0  0  0  0  0  0  0
   -2.2300   -5.5930    5.7950 C   0  0  0  0  0  0  0  0  0  0  0  0
    0.2360   -5.9770    6.0540 C   0  0  0  0  0  0  0  0  0  0  0  0
   -1.1520   -6.3420    6.5710 C   0  0  0  0  0  0  0  0  0  0  0  0
    0.6020    0.9580   -1.3670 H   0  0  0  0  0  0  0  0  0  0  0  0
   -1.9750   -1.1660    1.7080 H   0  0  0  0  0  0  0  0  0  0  0  0
   -3.0680    2.2080   -3.5640 H   0  0  0  0  0  0  0  0  0  0  0  0
    1.7530   -3.2630    4.1940 H   0  0  0  0  0  0  0  0  0  0  0  0
    2.2310   -1.8630    2.2080 H   0  0  0  0  0  0  0  0  0  0  0  0
    0.9880    2.6940   -2.2660 H   0  0  0  0  0  0  0  0  0  0  0  0
    1.4850    3.9960   -4.3140 H   0  0  0  0  0  0  0  0  0  0  0  0
    0.5170   -4.0520    7.0070 H   0  0  0  0  0  0  0  0  0  0  0  0
    1.4240   -4.2560    5.4890 H   0  0  0  0  0  0  0  0  0  0  0  0
   -2.7040   -3.6120    5.0540 H   0  0  0  0  0  0  0  0  0  0  0  0
   -2.1060   -3.6420    6.7310 H   0  0  0  0  0  0  0  0  0  0  0  0
    2.4320   -1.2740    0.5920 H   0  0  0  0  0  0  0  0  0  0  0  0
    2.2360    0.3980    0.0160 H   0  0  0  0  0  0  0  0  0  0  0  0
    1.7520   -0.9630   -1.0230 H   0  0  0  0  0  0  0  0  0  0  0  0
   -2.2560   -5.9800    4.7760 H   0  0  0  0  0  0  0  0  0  0  0  0
   -3.1910   -5.7730    6.2760 H   0  0  0  0  0  0  0  0  0  0  0  0
    0.9800   -6.4230    6.7140 H   0  0  0  0  0  0  0  0  0  0  0  0
    0.3500   -6.3850    5.0500 H   0  0  0  0  0  0  0  0  0  0  0  0
   -1.3070   -7.4150    6.4540 H   0  0  0  0  0  0  0  0  0  0  0  0
   -1.2220   -6.0780    7.6260 H   0  0  0  0  0  0  0  0  0  0  0  0
  1  4  1  0  0  0  0
  1  5  1  0  0  0  0
  1 13  2  0  0  0  0
  2  6  1  0  0  0  0
  2 12  2  0  0  0  0
  3  6  1  0  0  0  0
  3  7  1  0  0  0  0
  3 16  2  0  0  0  0
  4 22  1  0  0  0  0
  4 23  1  0  0  0  0
  5  9  2  0  0  0  0
  5 19  1  0  0  0  0
  6 28  1  0  0  0  0
  7 11  2  0  0  0  0
  7 17  1  0  0  0  0
  8  9  1  0  0  0  0
  8 12  1  0  0  0  0
  8 15  2  0  0  0  0
  9 29  1  0  0  0  0
 10 11  1  0  0  0  0
 10 14  2  0  0  0  0
 10 20  1  0  0  0  0
 11 30  1  0  0  0  0
 12 24  1  0  0  0  0
 13 15  1  0  0  0  0
 13 31  1  0  0  0  0
 14 18  1  0  0  0  0
 14 21  1  0  0  0  0
 15 32  1  0  0  0  0
 17 18  2  0  0  0  0
 17 33  1  0  0  0  0
 18 34  1  0  0  0  0
 22 26  1  0  0  0  0
 22 35  1  0  0  0  0
 22 36  1  0  0  0  0
 23 25  1  0  0  0  0
 23 37  1  0  0  0  0
 23 38  1  0  0  0  0
 24 39  1  0  0  0  0
 24 40  1  0  0  0  0
 24 41  1  0  0  0  0
 25 27  1  0  0  0  0
 25 42  1  0  0  0  0
 25 43  1  0  0  0  0
 26 27  1  0  0  0  0
 26 44  1  0  0  0  0
 26 45  1  0  0  0  0
 27 46  1  0  0  0  0
 27 47  1  0  0  0  0
M  END
>  <$CLUSTER>
306

>  <INDEX>
104939

$$$$
Art-Chem UZI/9686734
  MOE2020           3D

 57 59  0  0  0  0  0  0  0  0999 V2000
   -0.7780   -0.1430   -2.2720 C   0  0  0  0  0  0  0  0  0  0  0  0
    4.7510    2.6200    6.9720 C   0  0  0  0  0  0  0  0  0  0  0  0
    0.1090    0.2820   -0.0900 N   0  0  0  0  0  0  0  0  0  0  0  0
    2.7090    2.2320    2.6950 C   0  0  0  0  0  0  0  0  0  0  0  0
    4.9150    2.1410    8.2500 N   0  0  0  0  0  0  0  0  0  0  0  0
    7.2740    4.1560   10.3310 C   0  0  0  0  0  0  0  0  0  0  0  0
    2.8230    1.6840    3.9740 C   0  0  0  0  0  0  0  0  0  0  0  0
    5.7030    2.6070    9.3220 C   0  0  0  0  0  0  0  0  0  0  0  0
   -0.7480   -0.4540   -0.8460 N   0  0  0  0  0  0  0  0  0  0  0  0
    3.6730    2.3450    4.8430 O   0  0  0  0  0  0  0  0  0  0  0  0
    6.5150    3.7420    9.2320 C   0  0  0  0  0  0  0  0  0  0  0  0
    7.2300    3.4420   11.5270 C   0  0  0  0  0  0  0  0  0  0  0  0
    1.8730    1.6330    1.7490 C   0  0  0  0  0  0  0  0  0  0  0  0
   -0.1320    0.6890   -2.8490 O   0  0  0  0  0  0  0  0  0  0  0  0
   -1.7820   -1.0450   -2.9850 C   0  0  0  0  0  0  0  0  0  0  0  0
    5.3310    3.6300    6.5490 O   0  0  0  0  0  0  0  0  0  0  0  0
    2.1010    0.5380    4.3100 C   0  0  0  0  0  0  0  0  0  0  0  0
    6.4270    2.3120   11.6270 C   0  0  0  0  0  0  0  0  0  0  0  0
    0.2540   -0.1830    1.1150 C   0  0  0  0  0  0  0  0  0  0  0  0
    3.8120    1.8140    6.1550 C   0  0  0  0  0  0  0  0  0  0  0  0
    1.1640    0.4980    2.0920 C   0  0  0  0  0  0  0  0  0  0  0  0
    5.6670    1.8970   10.5310 C   0  0  0  0  0  0  0  0  0  0  0  0
    1.2640   -0.0640    3.3680 C   0  0  0  0  0  0  0  0  0  0  0  0
    3.4620    3.3670    2.4570 O   0  0  0  0  0  0  0  0  0  0  0  0
    8.1360    5.3740   10.2170 C   0  0  0  0  0  0  0  0  0  0  0  0
    8.0440    3.8880   12.6970 C   0  0  0  0  0  0  0  0  0  0  0  0
   -1.5300   -1.2210   -4.3680 C   0  0  0  0  0  0  0  0  0  0  0  0
   -2.8880   -1.5990   -2.4020 C   0  0  0  0  0  0  0  0  0  0  0  0
    3.3720    3.9520    1.1630 C   0  0  0  0  0  0  0  0  0  0  0  0
   -3.7620   -2.3790   -3.1640 C   0  0  0  0  0  0  0  0  0  0  0  0
   -2.4060   -2.0020   -5.1240 C   0  0  0  0  0  0  0  0  0  0  0  0
   -3.5200   -2.5820   -4.5210 C   0  0  0  0  0  0  0  0  0  0  0  0
    4.3780    1.3110    8.4570 H   0  0  0  0  0  0  0  0  0  0  0  0
   -1.3310   -1.1750   -0.4440 H   0  0  0  0  0  0  0  0  0  0  0  0
    6.5560    4.3020    8.3090 H   0  0  0  0  0  0  0  0  0  0  0  0
    1.7820    2.0540    0.7580 H   0  0  0  0  0  0  0  0  0  0  0  0
    2.1900    0.1160    5.3000 H   0  0  0  0  0  0  0  0  0  0  0  0
    6.3910    1.7550   12.5520 H   0  0  0  0  0  0  0  0  0  0  0  0
   -0.2860   -1.0690    1.4150 H   0  0  0  0  0  0  0  0  0  0  0  0
    2.8360    1.8080    6.6400 H   0  0  0  0  0  0  0  0  0  0  0  0
    4.1890    0.7940    6.0860 H   0  0  0  0  0  0  0  0  0  0  0  0
    5.0440    1.0190   10.6160 H   0  0  0  0  0  0  0  0  0  0  0  0
    0.7020   -0.9510    3.6220 H   0  0  0  0  0  0  0  0  0  0  0  0
    8.0400    5.7940    9.2160 H   0  0  0  0  0  0  0  0  0  0  0  0
    9.1760    5.1020   10.3990 H   0  0  0  0  0  0  0  0  0  0  0  0
    7.8200    6.1130   10.9530 H   0  0  0  0  0  0  0  0  0  0  0  0
    8.6040    4.7840   12.4300 H   0  0  0  0  0  0  0  0  0  0  0  0
    8.7380    3.0970   12.9790 H   0  0  0  0  0  0  0  0  0  0  0  0
    7.3840    4.1080   13.5360 H   0  0  0  0  0  0  0  0  0  0  0  0
   -0.6720   -0.7570   -4.8310 H   0  0  0  0  0  0  0  0  0  0  0  0
   -3.0860   -1.4340   -1.3530 H   0  0  0  0  0  0  0  0  0  0  0  0
    4.0130    4.8330    1.1170 H   0  0  0  0  0  0  0  0  0  0  0  0
    2.3400    4.2430    0.9670 H   0  0  0  0  0  0  0  0  0  0  0  0
    3.6940    3.2290    0.4140 H   0  0  0  0  0  0  0  0  0  0  0  0
   -4.6280   -2.8260   -2.6990 H   0  0  0  0  0  0  0  0  0  0  0  0
   -2.2200   -2.1570   -6.1770 H   0  0  0  0  0  0  0  0  0  0  0  0
   -4.1960   -3.1890   -5.1050 H   0  0  0  0  0  0  0  0  0  0  0  0
  1  9  1  0  0  0  0
  1 14  2  0  0  0  0
  1 15  1  0  0  0  0
  2  5  1  0  0  0  0
  2 16  2  0  0  0  0
  2 20  1  0  0  0  0
  3  9  1  0  0  0  0
  3 19  2  0  0  0  0
  4  7  2  0  0  0  0
  4 13  1  0  0  0  0
  4 24  1  0  0  0  0
  5  8  1  0  0  0  0
  5 33  1  0  0  0  0
  6 11  2  0  0  0  0
  6 12  1  0  0  0  0
  6 25  1  0  0  0  0
  7 10  1  0  0  0  0
  7 17  1  0  0  0  0
  8 11  1  0  0  0  0
  8 22  2  0  0  0  0
  9 34  1  0  0  0  0
 10 20  1  0  0  0  0
 11 35  1  0  0  0  0
 12 18  2  0  0  0  0
 12 26  1  0  0  0  0
 13 21  2  0  0  0  0
 13 36  1  0  0  0  0
 15 27  1  0  0  0  0
 15 28  2  0  0  0  0
 17 23  2  0  0  0  0
 17 37  1  0  0  0  0
 18 22  1  0  0  0  0
 18 38  1  0  0  0  0
 19 21  1  0  0  0  0
 19 39  1  0  0  0  0
 20 40  1  0  0  0  0
 20 41  1  0  0  0  0
 21 23  1  0  0  0  0
 22 42  1  0  0  0  0
 23 43  1  0  0  0  0
 24 29  1  0  0  0  0
 25 44  1  0  0  0  0
 25 45  1  0  0  0  0
 25 46  1  0  0  0  0
 26 47  1  0  0  0  0
 26 48  1  0  0  0  0
 26 49  1  0  0  0  0
 27 31  2  0  0  0  0
 27 50  1  0  0  0  0
 28 30  1  0  0  0  0
 28 51  1  0  0  0  0
 29 52  1  0  0  0  0
 29 53  1  0  0  0  0
 29 54  1  0  0  0  0
 30 32  2  0  0  0  0
 30 55  1  0  0  0  0
 31 32  1  0  0  0  0
 31 56  1  0  0  0  0
 32 57  1  0  0  0  0
M  END
>  <$CLUSTER>
307

>  <INDEX>
214384

$$$$
Chemstar CHS 2706706
  MOE2020           3D

 54 56  0  0  0  0  0  0  0  0999 V2000
   -0.9820    0.2830   -1.0830 N   0  0  0  0  0  0  0  0  0  0  0  0
    3.0840   -0.8970    7.2800 C   0  0  0  0  0  0  0  0  0  0  0  0
    0.9820   -0.2830    1.0830 N   0  0  0  0  0  0  0  0  0  0  0  0
   -1.4800    0.3030   -2.3320 C   0  0  0  0  0  0  0  0  0  0  0  0
    3.9100   -0.4290    8.4520 C   0  0  0  0  0  0  0  0  0  0  0  0
    3.2490   -0.0580    6.1840 N   0  0  0  0  0  0  0  0  0  0  0  0
    4.2540   -1.4320    9.4120 C   0  0  0  0  0  0  0  0  0  0  0  0
    4.9970   -1.0830   10.5410 C   0  0  0  0  0  0  0  0  0  0  0  0
    1.5080   -0.2470    2.2980 C   0  0  0  0  0  0  0  0  0  0  0  0
   -0.0330    1.3000   -0.5920 C   0  0  0  0  0  0  0  0  0  0  0  0
   -1.2520   -0.6880   -0.0050 C   0  0  0  0  0  0  0  0  0  0  0  0
    1.2520    0.6880    0.0050 C   0  0  0  0  0  0  0  0  0  0  0  0
    0.0330   -1.3000    0.5920 C   0  0  0  0  0  0  0  0  0  0  0  0
    2.3820   -1.8980    7.3660 O   0  0  0  0  0  0  0  0  0  0  0  0
    5.3850    0.2400   10.7400 C   0  0  0  0  0  0  0  0  0  0  0  0
   -1.1990    1.1580   -3.1770 O   0  0  0  0  0  0  0  0  0  0  0  0
    4.2830    0.8740    8.6810 C   0  0  0  0  0  0  0  0  0  0  0  0
    5.0260    1.2170    9.8130 C   0  0  0  0  0  0  0  0  0  0  0  0
    1.2000   -1.2150    3.2760 C   0  0  0  0  0  0  0  0  0  0  0  0
    2.4130    0.7600    2.6930 C   0  0  0  0  0  0  0  0  0  0  0  0
    2.6410   -0.1710    4.9120 C   0  0  0  0  0  0  0  0  0  0  0  0
    5.4370   -2.2670   11.6830 Cl  0  0  0  0  0  0  0  0  0  0  0  0
    2.9710    0.8010    3.9770 C   0  0  0  0  0  0  0  0  0  0  0  0
    1.7550   -1.1800    4.5610 C   0  0  0  0  0  0  0  0  0  0  0  0
   -2.4410   -0.8020   -2.6940 C   0  0  0  0  0  0  0  0  0  0  0  0
    6.1840    0.6100   11.9470 C   0  0  0  0  0  0  0  0  0  0  0  0
   -2.9870   -0.7690   -4.0790 C   0  0  0  0  0  0  0  0  0  0  0  0
   -3.9380   -1.8860   -4.3950 C   0  0  0  0  0  0  0  0  0  0  0  0
    3.8760    0.7230    6.3110 H   0  0  0  0  0  0  0  0  0  0  0  0
    3.9400   -2.4550    9.2640 H   0  0  0  0  0  0  0  0  0  0  0  0
   -0.5260    1.8920    0.1790 H   0  0  0  0  0  0  0  0  0  0  0  0
    0.2450    1.9470   -1.4240 H   0  0  0  0  0  0  0  0  0  0  0  0
   -1.8650   -1.4940   -0.4090 H   0  0  0  0  0  0  0  0  0  0  0  0
   -1.7970   -0.1810    0.7910 H   0  0  0  0  0  0  0  0  0  0  0  0
    1.7970    0.1810   -0.7910 H   0  0  0  0  0  0  0  0  0  0  0  0
    1.8650    1.4940    0.4090 H   0  0  0  0  0  0  0  0  0  0  0  0
   -0.2450   -1.9470    1.4240 H   0  0  0  0  0  0  0  0  0  0  0  0
    0.5260   -1.8920   -0.1790 H   0  0  0  0  0  0  0  0  0  0  0  0
    3.9980    1.6420    7.9770 H   0  0  0  0  0  0  0  0  0  0  0  0
    5.3230    2.2430    9.9710 H   0  0  0  0  0  0  0  0  0  0  0  0
    0.5130   -2.0100    3.0260 H   0  0  0  0  0  0  0  0  0  0  0  0
    2.6850    1.5250    1.9810 H   0  0  0  0  0  0  0  0  0  0  0  0
    3.6590    1.5900    4.2400 H   0  0  0  0  0  0  0  0  0  0  0  0
    1.4930   -1.9410    5.2810 H   0  0  0  0  0  0  0  0  0  0  0  0
   -3.2830   -0.7510   -2.0030 H   0  0  0  0  0  0  0  0  0  0  0  0
   -1.9210   -1.7510   -2.5640 H   0  0  0  0  0  0  0  0  0  0  0  0
    6.3660   -0.2800   12.5490 H   0  0  0  0  0  0  0  0  0  0  0  0
    5.6330    1.3420   12.5370 H   0  0  0  0  0  0  0  0  0  0  0  0
    7.1370    1.0380   11.6350 H   0  0  0  0  0  0  0  0  0  0  0  0
   -2.1510   -0.8250   -4.7770 H   0  0  0  0  0  0  0  0  0  0  0  0
   -3.5130    0.1760   -4.2160 H   0  0  0  0  0  0  0  0  0  0  0  0
   -3.4320   -2.8420   -4.2640 H   0  0  0  0  0  0  0  0  0  0  0  0
   -4.2780   -1.7930   -5.4270 H   0  0  0  0  0  0  0  0  0  0  0  0
   -4.7950   -1.8340   -3.7240 H   0  0  0  0  0  0  0  0  0  0  0  0
  1  4  1  0  0  0  0
  1 10  1  0  0  0  0
  1 11  1  0  0  0  0
  2  5  1  0  0  0  0
  2  6  1  0  0  0  0
  2 14  2  0  0  0  0
  3  9  1  0  0  0  0
  3 12  1  0  0  0  0
  3 13  1  0  0  0  0
  4 16  2  0  0  0  0
  4 25  1  0  0  0  0
  5  7  1  0  0  0  0
  5 17  2  0  0  0  0
  6 21  1  0  0  0  0
  6 29  1  0  0  0  0
  7  8  2  0  0  0  0
  7 30  1  0  0  0  0
  8 15  1  0  0  0  0
  8 22  1  0  0  0  0
  9 19  1  0  0  0  0
  9 20  2  0  0  0  0
 10 12  1  0  0  0  0
 10 31  1  0  0  0  0
 10 32  1  0  0  0  0
 11 13  1  0  0  0  0
 11 33  1  0  0  0  0
 11 34  1  0  0  0  0
 12 35  1  0  0  0  0
 12 36  1  0  0  0  0
 13 37  1  0  0  0  0
 13 38  1  0  0  0  0
 15 18  2  0  0  0  0
 15 26  1  0  0  0  0
 17 18  1  0  0  0  0
 17 39  1  0  0  0  0
 18 40  1  0  0  0  0
 19 24  2  0  0  0  0
 19 41  1  0  0  0  0
 20 23  1  0  0  0  0
 20 42  1  0  0  0  0
 21 23  2  0  0  0  0
 21 24  1  0  0  0  0
 23 43  1  0  0  0  0
 24 44  1  0  0  0  0
 25 27  1  0  0  0  0
 25 45  1  0  0  0  0
 25 46  1  0  0  0  0
 26 47  1  0  0  0  0
 26 48  1  0  0  0  0
 26 49  1  0  0  0  0
 27 28  1  0  0  0  0
 27 50  1  0  0  0  0
 27 51  1  0  0  0  0
 28 52  1  0  0  0  0
 28 53  1  0  0  0  0
 28 54  1  0  0  0  0
M  END
>  <$CLUSTER>
308

>  <INDEX>
197077

$$$$
Chemstar CHS 3324980
  MOE2020           3D

 33 35  0  0  1  0  0  0  0  0999 V2000
    1.0210    0.9280    0.0900 C   0  0  3  0  0  0  0  0  0  0  0  0
    1.8120   -0.3670   -0.2020 C   0  0  0  0  0  0  0  0  0  0  0  0
   -0.4010    0.4420    0.0880 C   0  0  0  0  0  0  0  0  0  0  0  0
    0.8770   -1.3990   -0.3330 N   0  0  0  0  0  0  0  0  0  0  0  0
    1.4460    1.5470    1.4140 C   0  0  0  0  0  0  0  0  0  0  0  0
   -0.4210   -0.9290   -0.1640 C   0  0  0  0  0  0  0  0  0  0  0  0
    0.7010    2.7860    1.8300 C   0  0  0  0  0  0  0  0  0  0  0  0
   -1.5830    1.1330    0.2870 C   0  0  0  0  0  0  0  0  0  0  0  0
    3.0250   -0.4540   -0.3140 O   0  0  0  0  0  0  0  0  0  0  0  0
    0.8170    3.1840    3.2790 C   0  0  0  0  0  0  0  0  0  0  0  0
   -1.5910   -1.6590   -0.2260 C   0  0  0  0  0  0  0  0  0  0  0  0
    0.0690    3.4810    1.0360 O   0  0  0  0  0  0  0  0  0  0  0  0
    1.2220    1.8350   -0.9770 O   0  0  0  0  0  0  0  0  0  0  0  0
    1.5230    2.4530    4.2080 C   0  0  0  0  0  0  0  0  0  0  0  0
    0.1310    4.3570    3.6790 C   0  0  0  0  0  0  0  0  0  0  0  0
   -2.7830    0.4170    0.2290 C   0  0  0  0  0  0  0  0  0  0  0  0
    0.9070    4.0240    5.9430 C   0  0  0  0  0  0  0  0  0  0  0  0
   -2.7870   -0.9670   -0.0240 C   0  0  0  0  0  0  0  0  0  0  0  0
    0.1860    4.7670    5.0120 C   0  0  0  0  0  0  0  0  0  0  0  0
    1.5740    2.8690    5.5410 C   0  0  0  0  0  0  0  0  0  0  0  0
   -3.8980    1.1270    0.4270 F   0  0  0  0  0  0  0  0  0  0  0  0
    0.9910    4.5520    7.7140 Br  0  0  0  0  0  0  0  0  0  0  0  0
    1.1140   -2.3620   -0.5260 H   0  0  0  0  0  0  0  0  0  0  0  0
    2.5030    1.8020    1.3390 H   0  0  0  0  0  0  0  0  0  0  0  0
    1.3080    0.7970    2.1930 H   0  0  0  0  0  0  0  0  0  0  0  0
   -1.5790    2.1950    0.4820 H   0  0  0  0  0  0  0  0  0  0  0  0
   -1.5820   -2.7210   -0.4230 H   0  0  0  0  0  0  0  0  0  0  0  0
    0.9400    1.4000   -1.7850 H   0  0  0  0  0  0  0  0  0  0  0  0
    2.0400    1.5540    3.9050 H   0  0  0  0  0  0  0  0  0  0  0  0
   -0.4310    4.9310    2.9570 H   0  0  0  0  0  0  0  0  0  0  0  0
   -3.7250   -1.5000   -0.0620 H   0  0  0  0  0  0  0  0  0  0  0  0
   -0.3320    5.6630    5.3220 H   0  0  0  0  0  0  0  0  0  0  0  0
    2.1330    2.2920    6.2630 H   0  0  0  0  0  0  0  0  0  0  0  0
  1  2  1  0  0  0  0
  1  3  1  0  0  0  0
  1  5  1  0  0  0  0
  1 13  1  0  0  0  0
  2  4  1  0  0  0  0
  2  9  2  0  0  0  0
  3  6  2  0  0  0  0
  3  8  1  0  0  0  0
  4  6  1  0  0  0  0
  4 23  1  0  0  0  0
  5  7  1  0  0  0  0
  5 24  1  0  0  0  0
  5 25  1  0  0  0  0
  6 11  1  0  0  0  0
  7 10  1  0  0  0  0
  7 12  2  0  0  0  0
  8 16  2  0  0  0  0
  8 26  1  0  0  0  0
 10 14  1  0  0  0  0
 10 15  2  0  0  0  0
 11 18  2  0  0  0  0
 11 27  1  0  0  0  0
 13 28  1  0  0  0  0
 14 20  2  0  0  0  0
 14 29  1  0  0  0  0
 15 19  1  0  0  0  0
 15 30  1  0  0  0  0
 16 18  1  0  0  0  0
 16 21  1  0  0  0  0
 17 19  2  0  0  0  0
 17 20  1  0  0  0  0
 17 22  1  0  0  0  0
 18 31  1  0  0  0  0
 19 32  1  0  0  0  0
 20 33  1  0  0  0  0
M  END
>  <$CLUSTER>
309

>  <INDEX>
197554

$$$$
Chemstar CHS 3182093
  MOE2020           3D

 48 52  0  0  1  0  0  0  0  0999 V2000
    0.6880   -0.5640    0.7900 C   0  0  0  0  0  0  0  0  0  0  0  0
    0.5360    0.7560    0.4240 C   0  0  0  0  0  0  0  0  0  0  0  0
   -0.2420   -1.5490    0.2840 C   0  0  0  0  0  0  0  0  0  0  0  0
   -1.2200   -1.2370   -0.4960 N   0  0  0  0  0  0  0  0  0  0  0  0
   -0.4540    1.1800   -0.3860 N   0  0  0  0  0  0  0  0  0  0  0  0
    1.8090   -0.7500    1.6560 C   0  0  0  0  0  0  0  0  0  0  0  0
    2.4580    0.4480    1.8890 C   0  0  0  0  0  0  0  0  0  0  0  0
    1.7260    1.7650    1.1010 S   0  0  0  0  0  0  0  0  0  0  0  0
   -1.4020    0.1850   -0.8770 C   0  0  3  0  0  0  0  0  0  0  0  0
   -1.4230    0.2470   -2.4030 C   0  0  0  0  0  0  0  0  0  0  0  0
    4.2830   -0.7540    3.0870 N   0  3  3  0  0  0  0  0  0  0  0  0
    3.6590    0.6010    2.7590 C   0  0  0  0  0  0  0  0  0  0  0  0
    2.3050   -2.0330    2.2510 C   0  0  0  0  0  0  0  0  0  0  0  0
   -0.2910   -0.0760   -3.1900 C   0  0  0  0  0  0  0  0  0  0  0  0
   -0.2930   -0.0110   -4.5870 C   0  0  0  0  0  0  0  0  0  0  0  0
   -2.5930    0.6570   -3.1460 C   0  0  0  0  0  0  0  0  0  0  0  0
   -0.0290   -2.8070    0.6280 O   0  0  0  0  0  0  0  0  0  0  0  0
    3.2310   -1.7920    3.4510 C   0  0  0  0  0  0  0  0  0  0  0  0
   -1.4470    0.3870   -5.2630 C   0  0  0  0  0  0  0  0  0  0  0  0
   -2.5960    0.7210   -4.5440 C   0  0  0  0  0  0  0  0  0  0  0  0
    5.3530   -0.6380    4.1340 C   0  0  0  0  0  0  0  0  0  0  0  0
    0.8670   -0.3480   -5.3160 C   0  0  0  0  0  0  0  0  0  0  0  0
   -1.4450    0.4520   -6.6640 C   0  0  0  0  0  0  0  0  0  0  0  0
    6.5890    0.0810    3.6220 C   0  0  0  0  0  0  0  0  0  0  0  0
    0.8570   -0.2800   -6.7090 C   0  0  0  0  0  0  0  0  0  0  0  0
   -0.2950    0.1180   -7.3810 C   0  0  0  0  0  0  0  0  0  0  0  0
   -0.5370    2.1530   -0.6440 H   0  0  0  0  0  0  0  0  0  0  0  0
   -2.3290    0.4740   -0.3810 H   0  0  0  0  0  0  0  0  0  0  0  0
    4.7340   -1.0830    2.2460 H   0  0  0  0  0  0  0  0  0  0  0  0
    3.3650    1.0910    3.6870 H   0  0  0  0  0  0  0  0  0  0  0  0
    4.3960    1.2150    2.2420 H   0  0  0  0  0  0  0  0  0  0  0  0
    2.8540   -2.5850    1.4880 H   0  0  0  0  0  0  0  0  0  0  0  0
    1.4490   -2.6220    2.5800 H   0  0  0  0  0  0  0  0  0  0  0  0
    0.6140   -0.3860   -2.6890 H   0  0  0  0  0  0  0  0  0  0  0  0
   -3.4910    0.9220   -2.6070 H   0  0  0  0  0  0  0  0  0  0  0  0
   -0.6480   -3.4400    0.2560 H   0  0  0  0  0  0  0  0  0  0  0  0
    2.6430   -1.4320    4.2950 H   0  0  0  0  0  0  0  0  0  0  0  0
    3.7230   -2.7260    3.7230 H   0  0  0  0  0  0  0  0  0  0  0  0
   -3.4890    1.0290   -5.0680 H   0  0  0  0  0  0  0  0  0  0  0  0
    5.6390   -1.6400    4.4550 H   0  0  0  0  0  0  0  0  0  0  0  0
    4.9530   -0.0850    4.9840 H   0  0  0  0  0  0  0  0  0  0  0  0
    1.7610   -0.6580   -4.7960 H   0  0  0  0  0  0  0  0  0  0  0  0
   -2.3360    0.7610   -7.1900 H   0  0  0  0  0  0  0  0  0  0  0  0
    6.9990   -0.4630    2.7710 H   0  0  0  0  0  0  0  0  0  0  0  0
    7.3350    0.1310    4.4150 H   0  0  0  0  0  0  0  0  0  0  0  0
    6.3200    1.0910    3.3120 H   0  0  0  0  0  0  0  0  0  0  0  0
    1.7450   -0.5370   -7.2670 H   0  0  0  0  0  0  0  0  0  0  0  0
   -0.2990    0.1690   -8.4600 H   0  0  0  0  0  0  0  0  0  0  0  0
  1  2  2  0  0  0  0
  1  3  1  0  0  0  0
  1  6  1  0  0  0  0
  2  5  1  0  0  0  0
  2  8  1  0  0  0  0
  3  4  2  0  0  0  0
  3 17  1  0  0  0  0
  4  9  1  0  0  0  0
  5  9  1  0  0  0  0
  5 27  1  0  0  0  0
  6  7  2  0  0  0  0
  6 13  1  0  0  0  0
  7  8  1  0  0  0  0
  7 12  1  0  0  0  0
  9 10  1  0  0  0  0
  9 28  1  0  0  0  0
 10 14  2  0  0  0  0
 10 16  1  0  0  0  0
 11 12  1  0  0  0  0
 11 18  1  0  0  0  0
 11 21  1  0  0  0  0
 11 29  1  0  0  0  0
 12 30  1  0  0  0  0
 12 31  1  0  0  0  0
 13 18  1  0  0  0  0
 13 32  1  0  0  0  0
 13 33  1  0  0  0  0
 14 15  1  0  0  0  0
 14 34  1  0  0  0  0
 15 19  2  0  0  0  0
 15 22  1  0  0  0  0
 16 20  2  0  0  0  0
 16 35  1  0  0  0  0
 17 36  1  0  0  0  0
 18 37  1  0  0  0  0
 18 38  1  0  0  0  0
 19 20  1  0  0  0  0
 19 23  1  0  0  0  0
 20 39  1  0  0  0  0
 21 24  1  0  0  0  0
 21 40  1  0  0  0  0
 21 41  1  0  0  0  0
 22 25  2  0  0  0  0
 22 42  1  0  0  0  0
 23 26  2  0  0  0  0
 23 43  1  0  0  0  0
 24 44  1  0  0  0  0
 24 45  1  0  0  0  0
 24 46  1  0  0  0  0
 25 26  1  0  0  0  0
 25 47  1  0  0  0  0
 26 48  1  0  0  0  0
M  CHG  1  11   1
M  END
>  <$CLUSTER>
310

>  <INDEX>
197454

$$$$
A-Synthese-Biotech EX-14747
  MOE2020           3D

 47 50  0  0  0  0  0  0  0  0999 V2000
   -0.1310    0.9330    0.0360 C   0  0  0  0  0  0  0  0  0  0  0  0
    3.0960    2.7350    0.2180 C   0  0  0  0  0  0  0  0  0  0  0  0
    1.2630    1.1680    0.0750 C   0  0  0  0  0  0  0  0  0  0  0  0
    1.6840    2.4930    0.1810 O   0  0  0  0  0  0  0  0  0  0  0  0
   -4.0060    3.4610    1.4100 C   0  0  0  0  0  0  0  0  0  0  0  0
   -0.6480   -0.3870   -0.0780 C   0  0  0  0  0  0  0  0  0  0  0  0
   -4.6030    4.8620    1.2750 C   0  0  0  0  0  0  0  0  0  0  0  0
   -2.1720    2.1590    0.6410 N   0  0  0  0  0  0  0  0  0  0  0  0
    3.3580    4.1750    0.3300 C   0  0  0  0  0  0  0  0  0  0  0  0
   -0.9910    2.1300    0.1070 C   0  0  0  0  0  0  0  0  0  0  0  0
   -2.7920    3.3440    0.6080 N   0  0  0  0  0  0  0  0  0  0  0  0
    3.9120    1.8380    0.1600 O   0  0  0  0  0  0  0  0  0  0  0  0
    2.1450    0.0830    0.0270 C   0  0  0  0  0  0  0  0  0  0  0  0
   -4.5100    2.6120    2.0950 O   0  0  0  0  0  0  0  0  0  0  0  0
   -6.2210    6.3670    2.2980 N   0  0  0  0  0  0  0  0  0  0  0  0
    0.2780   -1.4650   -0.1210 C   0  0  0  0  0  0  0  0  0  0  0  0
    1.6540   -1.2160   -0.0630 C   0  0  0  0  0  0  0  0  0  0  0  0
    2.3560    5.1350    0.3900 C   0  0  0  0  0  0  0  0  0  0  0  0
    4.7030    4.5540    0.3770 C   0  0  0  0  0  0  0  0  0  0  0  0
    4.0350    6.8700    0.5440 C   0  0  0  0  0  0  0  0  0  0  0  0
   -5.5590    5.1740    2.2560 C   0  0  0  0  0  0  0  0  0  0  0  0
    5.0380    5.9050    0.4830 C   0  0  0  0  0  0  0  0  0  0  0  0
    2.6960    6.4860    0.4970 C   0  0  0  0  0  0  0  0  0  0  0  0
    4.4580    8.5140    0.6740 Cl  0  0  0  0  0  0  0  0  0  0  0  0
   -4.3340    5.7750    0.3000 C   0  0  0  0  0  0  0  0  0  0  0  0
   -2.0210   -0.7200   -0.1810 C   0  0  0  0  0  0  0  0  0  0  0  0
   -5.9160    7.2570    1.3200 C   0  0  0  0  0  0  0  0  0  0  0  0
   -0.1720   -2.7910   -0.2310 C   0  0  0  0  0  0  0  0  0  0  0  0
   -4.9920    7.0060    0.3130 C   0  0  0  0  0  0  0  0  0  0  0  0
   -2.4550   -2.0430   -0.2940 C   0  0  0  0  0  0  0  0  0  0  0  0
   -1.5310   -3.0790   -0.3150 C   0  0  0  0  0  0  0  0  0  0  0  0
   -0.6090    3.0470   -0.3160 H   0  0  0  0  0  0  0  0  0  0  0  0
   -2.4400    4.1150    0.0590 H   0  0  0  0  0  0  0  0  0  0  0  0
    3.2110    0.2540    0.0600 H   0  0  0  0  0  0  0  0  0  0  0  0
    2.3460   -2.0450   -0.0880 H   0  0  0  0  0  0  0  0  0  0  0  0
    1.3180    4.8380    0.3540 H   0  0  0  0  0  0  0  0  0  0  0  0
    5.4790    3.8050    0.3310 H   0  0  0  0  0  0  0  0  0  0  0  0
   -5.7810    4.4350    3.0120 H   0  0  0  0  0  0  0  0  0  0  0  0
    6.0760    6.2020    0.5180 H   0  0  0  0  0  0  0  0  0  0  0  0
    1.9190    7.2350    0.5430 H   0  0  0  0  0  0  0  0  0  0  0  0
   -3.6180    5.5480   -0.4760 H   0  0  0  0  0  0  0  0  0  0  0  0
   -2.7540    0.0730   -0.1720 H   0  0  0  0  0  0  0  0  0  0  0  0
   -6.4190    8.2130    1.3250 H   0  0  0  0  0  0  0  0  0  0  0  0
    0.5460   -3.5980   -0.2510 H   0  0  0  0  0  0  0  0  0  0  0  0
   -4.7870    7.7480   -0.4440 H   0  0  0  0  0  0  0  0  0  0  0  0
   -3.5110   -2.2600   -0.3650 H   0  0  0  0  0  0  0  0  0  0  0  0
   -1.8650   -4.1030   -0.3960 H   0  0  0  0  0  0  0  0  0  0  0  0
  1  3  2  0  0  0  0
  1  6  1  0  0  0  0
  1 10  1  0  0  0  0
  2  4  1  0  0  0  0
  2  9  1  0  0  0  0
  2 12  2  0  0  0  0
  3  4  1  0  0  0  0
  3 13  1  0  0  0  0
  5  7  1  0  0  0  0
  5 11  1  0  0  0  0
  5 14  2  0  0  0  0
  6 16  2  0  0  0  0
  6 26  1  0  0  0  0
  7 21  2  0  0  0  0
  7 25  1  0  0  0  0
  8 10  2  0  0  0  0
  8 11  1  0  0  0  0
  9 18  1  0  0  0  0
  9 19  2  0  0  0  0
 10 32  1  0  0  0  0
 11 33  1  0  0  0  0
 13 17  2  0  0  0  0
 13 34  1  0  0  0  0
 15 21  1  0  0  0  0
 15 27  2  0  0  0  0
 16 17  1  0  0  0  0
 16 28  1  0  0  0  0
 17 35  1  0  0  0  0
 18 23  2  0  0  0  0
 18 36  1  0  0  0  0
 19 22  1  0  0  0  0
 19 37  1  0  0  0  0
 20 22  2  0  0  0  0
 20 23  1  0  0  0  0
 20 24  1  0  0  0  0
 21 38  1  0  0  0  0
 22 39  1  0  0  0  0
 23 40  1  0  0  0  0
 25 29  2  0  0  0  0
 25 41  1  0  0  0  0
 26 30  2  0  0  0  0
 26 42  1  0  0  0  0
 27 29  1  0  0  0  0
 27 43  1  0  0  0  0
 28 31  2  0  0  0  0
 28 44  1  0  0  0  0
 29 45  1  0  0  0  0
 30 31  1  0  0  0  0
 30 46  1  0  0  0  0
 31 47  1  0  0  0  0
M  END
>  <$CLUSTER>
311

>  <INDEX>
197938

$$$$
Chem T&I NSB 0016660
  MOE2020           3D

 29 30  0  0  0  0  0  0  0  0999 V2000
   -0.7780   -0.1430   -2.2720 C   0  0  0  0  0  0  0  0  0  0  0  0
    0.1090    0.2820   -0.0900 N   0  0  0  0  0  0  0  0  0  0  0  0
   -1.7820   -1.0450   -2.9850 C   0  0  0  0  0  0  0  0  0  0  0  0
   -0.7480   -0.4540   -0.8460 N   0  0  0  0  0  0  0  0  0  0  0  0
   -0.1320    0.6890   -2.8490 O   0  0  0  0  0  0  0  0  0  0  0  0
   -1.5300   -1.2210   -4.3680 C   0  0  0  0  0  0  0  0  0  0  0  0
   -2.8880   -1.5990   -2.4030 C   0  0  0  0  0  0  0  0  0  0  0  0
    0.2540   -0.1830    1.1150 C   0  0  0  0  0  0  0  0  0  0  0  0
   -3.5200   -2.5820   -4.5210 C   0  0  0  0  0  0  0  0  0  0  0  0
    1.8730    1.6330    1.7490 C   0  0  0  0  0  0  0  0  0  0  0  0
    1.1640    0.4980    2.0920 C   0  0  0  0  0  0  0  0  0  0  0  0
    2.7090    2.2320    2.6950 C   0  0  0  0  0  0  0  0  0  0  0  0
   -3.7620   -2.3790   -3.1640 C   0  0  0  0  0  0  0  0  0  0  0  0
   -2.4070   -2.0020   -5.1240 C   0  0  0  0  0  0  0  0  0  0  0  0
   -4.6660   -3.6190   -5.5390 Br  0  0  0  0  0  0  0  0  0  0  0  0
    3.3620    3.3230    2.2950 F   0  0  0  0  0  0  0  0  0  0  0  0
    2.1010    0.5380    4.3100 C   0  0  0  0  0  0  0  0  0  0  0  0
    2.8230    1.6840    3.9740 C   0  0  0  0  0  0  0  0  0  0  0  0
    1.2640   -0.0640    3.3680 C   0  0  0  0  0  0  0  0  0  0  0  0
   -1.3310   -1.1750   -0.4440 H   0  0  0  0  0  0  0  0  0  0  0  0
   -0.6720   -0.7580   -4.8310 H   0  0  0  0  0  0  0  0  0  0  0  0
   -3.0860   -1.4340   -1.3540 H   0  0  0  0  0  0  0  0  0  0  0  0
   -0.2860   -1.0690    1.4150 H   0  0  0  0  0  0  0  0  0  0  0  0
    1.7820    2.0540    0.7580 H   0  0  0  0  0  0  0  0  0  0  0  0
   -4.6280   -2.8260   -2.6990 H   0  0  0  0  0  0  0  0  0  0  0  0
   -2.2220   -2.1560   -6.1770 H   0  0  0  0  0  0  0  0  0  0  0  0
    2.1900    0.1160    5.3000 H   0  0  0  0  0  0  0  0  0  0  0  0
    3.4700    2.1470    4.7040 H   0  0  0  0  0  0  0  0  0  0  0  0
    0.7020   -0.9510    3.6220 H   0  0  0  0  0  0  0  0  0  0  0  0
  1  3  1  0  0  0  0
  1  4  1  0  0  0  0
  1  5  2  0  0  0  0
  2  4  1  0  0  0  0
  2  8  2  0  0  0  0
  3  6  1  0  0  0  0
  3  7  2  0  0  0  0
  4 20  1  0  0  0  0
  6 14  2  0  0  0  0
  6 21  1  0  0  0  0
  7 13  1  0  0  0  0
  7 22  1  0  0  0  0
  8 11  1  0  0  0  0
  8 23  1  0  0  0  0
  9 13  2  0  0  0  0
  9 14  1  0  0  0  0
  9 15  1  0  0  0  0
 10 11  1  0  0  0  0
 10 12  2  0  0  0  0
 10 24  1  0  0  0  0
 11 19  2  0  0  0  0
 12 16  1  0  0  0  0
 12 18  1  0  0  0  0
 13 25  1  0  0  0  0
 14 26  1  0  0  0  0
 17 18  2  0  0  0  0
 17 19  1  0  0  0  0
 17 27  1  0  0  0  0
 18 28  1  0  0  0  0
 19 29  1  0  0  0  0
M  END
>  <$CLUSTER>
312

>  <INDEX>
568388

$$$$
Enamine T0505-3810
  MOE2020           3D

 45 46  0  0  0  0  0  0  0  0999 V2000
   -1.7940   -0.6080    0.1890 C   0  0  0  0  0  0  0  0  0  0  0  0
    2.7100   -3.2240   -3.5150 C   0  0  0  0  0  0  0  0  0  0  0  0
   -0.5140    0.1470    0.3200 C   0  0  0  0  0  0  0  0  0  0  0  0
    1.6960   -1.6230   -2.0620 N   0  0  0  0  0  0  0  0  0  0  0  0
    2.3400   -4.3580   -4.4670 C   0  0  0  0  0  0  0  0  0  0  0  0
    1.9290   -6.4770   -6.2240 C   0  0  0  0  0  0  0  0  0  0  0  0
    1.5070   -2.6430   -2.9270 N   0  0  0  0  0  0  0  0  0  0  0  0
    1.7060   -7.5750   -7.1400 N   0  0  0  0  0  0  0  0  0  0  0  0
    0.6400   -0.1900   -0.4040 C   0  0  0  0  0  0  0  0  0  0  0  0
   -2.8240    0.0490   -0.1530 O   0  0  0  0  0  0  0  0  0  0  0  0
    3.8480   -2.8950   -3.3150 O   0  0  0  0  0  0  0  0  0  0  0  0
    1.1570   -4.4520   -5.1480 C   0  0  0  0  0  0  0  0  0  0  0  0
    3.3670   -5.3110   -4.6700 C   0  0  0  0  0  0  0  0  0  0  0  0
    0.9390   -5.5150   -6.0260 C   0  0  0  0  0  0  0  0  0  0  0  0
    3.1430   -6.3730   -5.5480 C   0  0  0  0  0  0  0  0  0  0  0  0
    0.6370   -1.2760   -1.3950 C   0  0  0  0  0  0  0  0  0  0  0  0
   -1.7730   -1.8510    0.4440 O   0  5  0  0  0  0  0  0  0  0  0  0
   -0.4640    1.2380    1.2120 C   0  0  0  0  0  0  0  0  0  0  0  0
    2.7580   -8.5500   -7.4570 C   0  0  0  0  0  0  0  0  0  0  0  0
    0.4130   -7.7830   -7.8060 C   0  0  0  0  0  0  0  0  0  0  0  0
    1.8210    0.5410   -0.2190 C   0  0  0  0  0  0  0  0  0  0  0  0
    2.7720   -9.6870   -6.4460 C   0  0  0  0  0  0  0  0  0  0  0  0
    0.3300   -6.9860   -9.1000 C   0  0  0  0  0  0  0  0  0  0  0  0
    0.7150    1.9620    1.3900 C   0  0  0  0  0  0  0  0  0  0  0  0
    1.8590    1.6110    0.6770 C   0  0  0  0  0  0  0  0  0  0  0  0
    0.5840   -2.9850   -3.1540 H   0  0  0  0  0  0  0  0  0  0  0  0
    0.3920   -3.7030   -5.0060 H   0  0  0  0  0  0  0  0  0  0  0  0
    4.3110   -5.2180   -4.1530 H   0  0  0  0  0  0  0  0  0  0  0  0
    0.0000   -5.5930   -6.5540 H   0  0  0  0  0  0  0  0  0  0  0  0
    3.9120   -7.1150   -5.7040 H   0  0  0  0  0  0  0  0  0  0  0  0
   -0.2850   -1.8080   -1.5760 H   0  0  0  0  0  0  0  0  0  0  0  0
   -1.3490    1.5160    1.7640 H   0  0  0  0  0  0  0  0  0  0  0  0
    3.7250   -8.0480   -7.4420 H   0  0  0  0  0  0  0  0  0  0  0  0
    2.5770   -8.9590   -8.4510 H   0  0  0  0  0  0  0  0  0  0  0  0
   -0.3870   -7.4630   -7.1390 H   0  0  0  0  0  0  0  0  0  0  0  0
    0.2950   -8.8430   -8.0320 H   0  0  0  0  0  0  0  0  0  0  0  0
    2.7090    0.2750   -0.7740 H   0  0  0  0  0  0  0  0  0  0  0  0
    2.9530   -9.2850   -5.4490 H   0  0  0  0  0  0  0  0  0  0  0  0
    3.5630  -10.3920   -6.7030 H   0  0  0  0  0  0  0  0  0  0  0  0
    1.8100  -10.1990   -6.4620 H   0  0  0  0  0  0  0  0  0  0  0  0
    0.4470   -5.9250   -8.8810 H   0  0  0  0  0  0  0  0  0  0  0  0
   -0.6390   -7.1550   -9.5700 H   0  0  0  0  0  0  0  0  0  0  0  0
    1.1220   -7.3070   -9.7760 H   0  0  0  0  0  0  0  0  0  0  0  0
    0.7410    2.7930    2.0790 H   0  0  0  0  0  0  0  0  0  0  0  0
    2.7750    2.1660    0.8170 H   0  0  0  0  0  0  0  0  0  0  0  0
  1  3  1  0  0  0  0
  1 10  2  0  0  0  0
  1 17  1  0  0  0  0
  2  5  1  0  0  0  0
  2  7  1  0  0  0  0
  2 11  2  0  0  0  0
  3  9  2  0  0  0  0
  3 18  1  0  0  0  0
  4  7  1  0  0  0  0
  4 16  2  0  0  0  0
  5 12  2  0  0  0  0
  5 13  1  0  0  0  0
  6  8  1  0  0  0  0
  6 14  2  0  0  0  0
  6 15  1  0  0  0  0
  7 26  1  0  0  0  0
  8 19  1  0  0  0  0
  8 20  1  0  0  0  0
  9 16  1  0  0  0  0
  9 21  1  0  0  0  0
 12 14  1  0  0  0  0
 12 27  1  0  0  0  0
 13 15  2  0  0  0  0
 13 28  1  0  0  0  0
 14 29  1  0  0  0  0
 15 30  1  0  0  0  0
 16 31  1  0  0  0  0
 18 24  2  0  0  0  0
 18 32  1  0  0  0  0
 19 22  1  0  0  0  0
 19 33  1  0  0  0  0
 19 34  1  0  0  0  0
 20 23  1  0  0  0  0
 20 35  1  0  0  0  0
 20 36  1  0  0  0  0
 21 25  2  0  0  0  0
 21 37  1  0  0  0  0
 22 38  1  0  0  0  0
 22 39  1  0  0  0  0
 22 40  1  0  0  0  0
 23 41  1  0  0  0  0
 23 42  1  0  0  0  0
 23 43  1  0  0  0  0
 24 25  1  0  0  0  0
 24 44  1  0  0  0  0
 25 45  1  0  0  0  0
M  CHG  1  17  -1
M  END
>  <$CLUSTER>
313

>  <INDEX>
411209

$$$$
Life Chemicals F3032-0094
  MOE2020           3D

 44 47  0  0  0  0  0  0  0  0999 V2000
    1.1700    0.8820   -1.2960 N   0  0  0  0  0  0  0  0  0  0  0  0
    0.4420    1.1490   -0.2500 C   0  0  0  0  0  0  0  0  0  0  0  0
    0.8580    2.1870    0.7800 C   0  0  0  0  0  0  0  0  0  0  0  0
    2.0380    2.8360    0.4900 N   0  0  0  0  0  0  0  0  0  0  0  0
   -0.8250    0.4160   -0.0510 C   0  0  0  0  0  0  0  0  0  0  0  0
    0.5260   -3.0980   -0.0030 C   0  0  0  0  0  0  0  0  0  0  0  0
    0.3520   -1.7210   -0.0640 N   0  0  0  0  0  0  0  0  0  0  0  0
   -0.8630   -0.9910    0.0190 C   0  0  0  0  0  0  0  0  0  0  0  0
    2.3300    1.5900   -1.4620 C   0  0  0  0  0  0  0  0  0  0  0  0
    2.7640    2.5350   -0.6240 C   0  0  0  0  0  0  0  0  0  0  0  0
    1.9830   -3.4660   -0.1370 C   0  0  0  0  0  0  0  0  0  0  0  0
    0.1670    2.3730    1.7730 O   0  0  0  0  0  0  0  0  0  0  0  0
   -0.3290   -3.9660    0.1400 O   0  0  0  0  0  0  0  0  0  0  0  0
    3.0360   -2.6590    0.2260 C   0  0  0  0  0  0  0  0  0  0  0  0
    2.2510   -4.7860   -0.6170 C   0  0  0  0  0  0  0  0  0  0  0  0
    3.5720   -5.2190   -0.7490 C   0  0  0  0  0  0  0  0  0  0  0  0
    4.3540   -3.0980    0.0920 C   0  0  0  0  0  0  0  0  0  0  0  0
    4.6230   -4.3750   -0.3980 C   0  0  0  0  0  0  0  0  0  0  0  0
   -1.9970    1.1780    0.0310 C   0  0  0  0  0  0  0  0  0  0  0  0
   -2.1110   -1.6060    0.1840 C   0  0  0  0  0  0  0  0  0  0  0  0
    3.0970    1.2970   -2.6510 C   0  0  0  0  0  0  0  0  0  0  0  0
    3.9790    3.2490   -0.8530 C   0  0  0  0  0  0  0  0  0  0  0  0
    6.0360   -4.8350   -0.5430 C   0  0  0  0  0  0  0  0  0  0  0  0
   -3.2250    0.5450    0.1960 C   0  0  0  0  0  0  0  0  0  0  0  0
   -3.2810   -0.8430    0.2730 C   0  0  0  0  0  0  0  0  0  0  0  0
    4.2880    1.9860   -2.8910 C   0  0  0  0  0  0  0  0  0  0  0  0
    4.7280    2.9600   -1.9940 C   0  0  0  0  0  0  0  0  0  0  0  0
    2.3740    3.5520    1.1180 H   0  0  0  0  0  0  0  0  0  0  0  0
    1.1920   -1.1730   -0.1820 H   0  0  0  0  0  0  0  0  0  0  0  0
    2.8400   -1.6730    0.6200 H   0  0  0  0  0  0  0  0  0  0  0  0
    1.4360   -5.4450   -0.8760 H   0  0  0  0  0  0  0  0  0  0  0  0
    3.7790   -6.2100   -1.1240 H   0  0  0  0  0  0  0  0  0  0  0  0
    5.1690   -2.4460    0.3690 H   0  0  0  0  0  0  0  0  0  0  0  0
   -1.9480    2.2550   -0.0340 H   0  0  0  0  0  0  0  0  0  0  0  0
   -2.1710   -2.6830    0.2430 H   0  0  0  0  0  0  0  0  0  0  0  0
    2.7510    0.5500   -3.3500 H   0  0  0  0  0  0  0  0  0  0  0  0
    4.3130    4.0010   -0.1540 H   0  0  0  0  0  0  0  0  0  0  0  0
    6.0490   -5.8510   -0.9380 H   0  0  0  0  0  0  0  0  0  0  0  0
    6.5260   -4.8170    0.4310 H   0  0  0  0  0  0  0  0  0  0  0  0
    6.5650   -4.1730   -1.2280 H   0  0  0  0  0  0  0  0  0  0  0  0
   -4.1310    1.1290    0.2640 H   0  0  0  0  0  0  0  0  0  0  0  0
   -4.2340   -1.3350    0.4020 H   0  0  0  0  0  0  0  0  0  0  0  0
    4.8700    1.7640   -3.7730 H   0  0  0  0  0  0  0  0  0  0  0  0
    5.6490    3.4910   -2.1830 H   0  0  0  0  0  0  0  0  0  0  0  0
  1  2  2  0  0  0  0
  1  9  1  0  0  0  0
  2  3  1  0  0  0  0
  2  5  1  0  0  0  0
  3  4  1  0  0  0  0
  3 12  2  0  0  0  0
  4 10  1  0  0  0  0
  4 28  1  0  0  0  0
  5  8  2  0  0  0  0
  5 19  1  0  0  0  0
  6  7  1  0  0  0  0
  6 11  1  0  0  0  0
  6 13  2  0  0  0  0
  7  8  1  0  0  0  0
  7 29  1  0  0  0  0
  8 20  1  0  0  0  0
  9 10  2  0  0  0  0
  9 21  1  0  0  0  0
 10 22  1  0  0  0  0
 11 14  1  0  0  0  0
 11 15  2  0  0  0  0
 14 17  2  0  0  0  0
 14 30  1  0  0  0  0
 15 16  1  0  0  0  0
 15 31  1  0  0  0  0
 16 18  2  0  0  0  0
 16 32  1  0  0  0  0
 17 18  1  0  0  0  0
 17 33  1  0  0  0  0
 18 23  1  0  0  0  0
 19 24  2  0  0  0  0
 19 34  1  0  0  0  0
 20 25  2  0  0  0  0
 20 35  1  0  0  0  0
 21 26  2  0  0  0  0
 21 36  1  0  0  0  0
 22 27  2  0  0  0  0
 22 37  1  0  0  0  0
 23 38  1  0  0  0  0
 23 39  1  0  0  0  0
 23 40  1  0  0  0  0
 24 25  1  0  0  0  0
 24 41  1  0  0  0  0
 25 42  1  0  0  0  0
 26 27  1  0  0  0  0
 26 43  1  0  0  0  0
 27 44  1  0  0  0  0
M  END
>  <$CLUSTER>
314

>  <INDEX>
309856

$$$$
Comgenex CGX-2212473
  MOE2020           3D

 55 58  0  0  0  0  0  0  0  0999 V2000
   -0.2730    0.9280    0.5650 N   0  0  0  0  0  0  0  0  0  0  0  0
   -1.2230    0.5250    1.5130 C   0  0  0  0  0  0  0  0  0  0  0  0
    0.3060    0.0290   -0.3960 C   0  0  0  0  0  0  0  0  0  0  0  0
   -1.7700   -1.7730    0.1280 S   0  0  0  0  0  0  0  0  0  0  0  0
    4.9840    3.0880    1.4810 C   0  0  0  0  0  0  0  0  0  0  0  0
    0.1190    2.3450    0.5710 C   0  0  0  0  0  0  0  0  0  0  0  0
   -0.2890   -1.2200   -0.6800 C   0  0  0  0  0  0  0  0  0  0  0  0
    3.6020    2.9790    2.0110 C   0  0  0  0  0  0  0  0  0  0  0  0
   -1.4540   -0.9600    1.6960 C   0  0  0  0  0  0  0  0  0  0  0  0
    6.7880    1.0620    0.5260 N   0  3  0  0  0  0  0  0  0  0  0  0
    2.5690    2.7180    1.1050 C   0  0  0  0  0  0  0  0  0  0  0  0
   -1.7940    1.3230    2.2600 O   0  0  0  0  0  0  0  0  0  0  0  0
    5.1710    3.4100    0.3100 O   0  0  0  0  0  0  0  0  0  0  0  0
    1.2490    2.6310    1.5540 C   0  0  0  0  0  0  0  0  0  0  0  0
    6.0100    2.7950    2.3520 N   0  0  0  0  0  0  0  0  0  0  0  0
    5.0540   -0.9780   -0.6560 O   0  0  0  0  0  0  0  0  0  0  0  0
    7.3970    2.8320    2.0480 C   0  0  0  0  0  0  0  0  0  0  0  0
    7.8660    1.5250    1.4380 C   0  0  0  0  0  0  0  0  0  0  0  0
    1.4600    0.3850   -1.1190 C   0  0  0  0  0  0  0  0  0  0  0  0
    7.3320   -0.0530   -0.4070 C   0  0  0  0  0  0  0  0  0  0  0  0
    5.5330    0.5490    1.1900 C   0  0  0  0  0  0  0  0  0  0  0  0
    3.3190    3.1390    3.3670 C   0  0  0  0  0  0  0  0  0  0  0  0
    2.0040    3.0330    3.8220 C   0  0  0  0  0  0  0  0  0  0  0  0
    0.9710    2.7720    2.9190 C   0  0  0  0  0  0  0  0  0  0  0  0
    6.2160   -0.5190   -1.3770 C   0  0  0  0  0  0  0  0  0  0  0  0
    4.5110    0.0690    0.1790 C   0  0  0  0  0  0  0  0  0  0  0  0
    0.2590   -2.0610   -1.6580 C   0  0  0  0  0  0  0  0  0  0  0  0
    2.0050   -0.4660   -2.0820 C   0  0  0  0  0  0  0  0  0  0  0  0
    1.4050   -1.6870   -2.3540 C   0  0  0  0  0  0  0  0  0  0  0  0
   -0.7470    2.9470    0.8480 H   0  0  0  0  0  0  0  0  0  0  0  0
    0.4480    2.6210   -0.4310 H   0  0  0  0  0  0  0  0  0  0  0  0
   -2.3130   -1.1070    2.3510 H   0  0  0  0  0  0  0  0  0  0  0  0
   -0.5690   -1.4030    2.1530 H   0  0  0  0  0  0  0  0  0  0  0  0
    6.5160    1.8940    0.0220 H   0  0  0  0  0  0  0  0  0  0  0  0
    2.7920    2.5840    0.0570 H   0  0  0  0  0  0  0  0  0  0  0  0
    5.7530    2.5300    3.2920 H   0  0  0  0  0  0  0  0  0  0  0  0
    7.9560    3.0160    2.9650 H   0  0  0  0  0  0  0  0  0  0  0  0
    7.5830    3.6400    1.3410 H   0  0  0  0  0  0  0  0  0  0  0  0
    8.7880    1.6820    0.8790 H   0  0  0  0  0  0  0  0  0  0  0  0
    8.0370    0.7860    2.2210 H   0  0  0  0  0  0  0  0  0  0  0  0
    1.9330    1.3360   -0.9250 H   0  0  0  0  0  0  0  0  0  0  0  0
    7.6640   -0.8990    0.1950 H   0  0  0  0  0  0  0  0  0  0  0  0
    8.1720    0.3350   -0.9820 H   0  0  0  0  0  0  0  0  0  0  0  0
    5.0930    1.3530    1.7800 H   0  0  0  0  0  0  0  0  0  0  0  0
    5.7960   -0.2810    1.8460 H   0  0  0  0  0  0  0  0  0  0  0  0
    4.1170    3.3450    4.0650 H   0  0  0  0  0  0  0  0  0  0  0  0
    1.7850    3.1530    4.8730 H   0  0  0  0  0  0  0  0  0  0  0  0
   -0.0450    2.6790    3.2740 H   0  0  0  0  0  0  0  0  0  0  0  0
    5.9300    0.3160   -2.0170 H   0  0  0  0  0  0  0  0  0  0  0  0
    6.5970   -1.3340   -1.9920 H   0  0  0  0  0  0  0  0  0  0  0  0
    3.6400   -0.3150    0.7090 H   0  0  0  0  0  0  0  0  0  0  0  0
    4.2130    0.9070   -0.4510 H   0  0  0  0  0  0  0  0  0  0  0  0
   -0.2120   -3.0080   -1.8740 H   0  0  0  0  0  0  0  0  0  0  0  0
    2.8960   -0.1730   -2.6170 H   0  0  0  0  0  0  0  0  0  0  0  0
    1.8250   -2.3440   -3.1020 H   0  0  0  0  0  0  0  0  0  0  0  0
  1  2  1  0  0  0  0
  1  3  1  0  0  0  0
  1  6  1  0  0  0  0
  2  9  1  0  0  0  0
  2 12  2  0  0  0  0
  3  7  2  0  0  0  0
  3 19  1  0  0  0  0
  4  7  1  0  0  0  0
  4  9  1  0  0  0  0
  5  8  1  0  0  0  0
  5 13  2  0  0  0  0
  5 15  1  0  0  0  0
  6 14  1  0  0  0  0
  6 30  1  0  0  0  0
  6 31  1  0  0  0  0
  7 27  1  0  0  0  0
  8 11  2  0  0  0  0
  8 22  1  0  0  0  0
  9 32  1  0  0  0  0
  9 33  1  0  0  0  0
 10 18  1  0  0  0  0
 10 20  1  0  0  0  0
 10 21  1  0  0  0  0
 10 34  1  0  0  0  0
 11 14  1  0  0  0  0
 11 35  1  0  0  0  0
 14 24  2  0  0  0  0
 15 17  1  0  0  0  0
 15 36  1  0  0  0  0
 16 25  1  0  0  0  0
 16 26  1  0  0  0  0
 17 18  1  0  0  0  0
 17 37  1  0  0  0  0
 17 38  1  0  0  0  0
 18 39  1  0  0  0  0
 18 40  1  0  0  0  0
 19 28  2  0  0  0  0
 19 41  1  0  0  0  0
 20 25  1  0  0  0  0
 20 42  1  0  0  0  0
 20 43  1  0  0  0  0
 21 26  1  0  0  0  0
 21 44  1  0  0  0  0
 21 45  1  0  0  0  0
 22 23  2  0  0  0  0
 22 46  1  0  0  0  0
 23 24  1  0  0  0  0
 23 47  1  0  0  0  0
 24 48  1  0  0  0  0
 25 49  1  0  0  0  0
 25 50  1  0  0  0  0
 26 51  1  0  0  0  0
 26 52  1  0  0  0  0
 27 29  2  0  0  0  0
 27 53  1  0  0  0  0
 28 29  1  0  0  0  0
 28 54  1  0  0  0  0
 29 55  1  0  0  0  0
M  CHG  1  10   1
M  END
>  <$CLUSTER>
315

>  <INDEX>
252870

$$$$
Biofocus 335_8213_2120_6008
  MOE2020           3D

 37 39  0  0  1  0  0  0  0  0999 V2000
    0.0330   -0.7620    0.4170 N   0  0  0  0  0  0  0  0  0  0  0  0
   -0.4190   -0.8360   -0.9150 C   0  0  0  0  0  0  0  0  0  0  0  0
    0.5580    0.4420    1.0110 C   0  0  0  0  0  0  0  0  0  0  0  0
    0.8760    1.4620   -1.5630 S   0  0  0  0  0  0  0  0  0  0  0  0
    0.9850    1.5190    0.2120 C   0  0  0  0  0  0  0  0  0  0  0  0
   -0.6360    0.4850   -1.6360 C   0  0  3  0  0  0  0  0  0  0  0  0
   -0.0300   -1.9950    1.2160 C   0  0  0  0  0  0  0  0  0  0  0  0
   -0.7320   -1.8990   -1.4600 O   0  0  0  0  0  0  0  0  0  0  0  0
    0.7110    0.5650    2.4050 C   0  0  0  0  0  0  0  0  0  0  0  0
    1.5500    2.6650    0.7940 C   0  0  0  0  0  0  0  0  0  0  0  0
   -1.3940   -2.1870    1.8670 C   0  0  0  0  0  0  0  0  0  0  0  0
    1.2630    1.7130    2.9800 C   0  0  0  0  0  0  0  0  0  0  0  0
   -3.9020   -2.5290    3.0650 C   0  0  0  0  0  0  0  0  0  0  0  0
    1.6850    2.7620    2.1750 C   0  0  0  0  0  0  0  0  0  0  0  0
   -5.4170   -2.7390    3.8110 Cl  0  0  0  0  0  0  0  0  0  0  0  0
   -2.3420   -3.0350    1.2850 C   0  0  0  0  0  0  0  0  0  0  0  0
   -1.7170   -1.4920    3.0390 C   0  0  0  0  0  0  0  0  0  0  0  0
   -3.5920   -3.2100    1.8870 C   0  0  0  0  0  0  0  0  0  0  0  0
   -2.9660   -1.6690    3.6400 C   0  0  0  0  0  0  0  0  0  0  0  0
   -1.0350    0.2910   -3.0960 C   0  0  0  0  0  0  0  0  0  0  0  0
    1.3970    1.8040    4.4670 C   0  0  0  0  0  0  0  0  0  0  0  0
   -1.4550    1.0000   -1.1340 H   0  0  0  0  0  0  0  0  0  0  0  0
    0.7290   -1.9470    1.9970 H   0  0  0  0  0  0  0  0  0  0  0  0
    0.1720   -2.8460    0.5660 H   0  0  0  0  0  0  0  0  0  0  0  0
    0.3950   -0.2460    3.0440 H   0  0  0  0  0  0  0  0  0  0  0  0
    1.8820    3.4770    0.1650 H   0  0  0  0  0  0  0  0  0  0  0  0
    2.1150    3.6480    2.6180 H   0  0  0  0  0  0  0  0  0  0  0  0
   -2.1080   -3.5560    0.3680 H   0  0  0  0  0  0  0  0  0  0  0  0
   -0.9980   -0.8170    3.4800 H   0  0  0  0  0  0  0  0  0  0  0  0
   -4.3180   -3.8730    1.4400 H   0  0  0  0  0  0  0  0  0  0  0  0
   -3.2070   -1.1400    4.5500 H   0  0  0  0  0  0  0  0  0  0  0  0
   -0.2340   -0.2240   -3.6260 H   0  0  0  0  0  0  0  0  0  0  0  0
   -1.2100    1.2630   -3.5570 H   0  0  0  0  0  0  0  0  0  0  0  0
   -1.9460   -0.3050   -3.1480 H   0  0  0  0  0  0  0  0  0  0  0  0
    1.0140    0.8910    4.9230 H   0  0  0  0  0  0  0  0  0  0  0  0
    0.8270    2.6590    4.8320 H   0  0  0  0  0  0  0  0  0  0  0  0
    2.4470    1.9290    4.7300 H   0  0  0  0  0  0  0  0  0  0  0  0
  1  2  1  0  0  0  0
  1  3  1  0  0  0  0
  1  7  1  0  0  0  0
  2  6  1  0  0  0  0
  2  8  2  0  0  0  0
  3  5  2  0  0  0  0
  3  9  1  0  0  0  0
  4  5  1  0  0  0  0
  4  6  1  0  0  0  0
  5 10  1  0  0  0  0
  6 20  1  0  0  0  0
  6 22  1  0  0  0  0
  7 11  1  0  0  0  0
  7 23  1  0  0  0  0
  7 24  1  0  0  0  0
  9 12  2  0  0  0  0
  9 25  1  0  0  0  0
 10 14  2  0  0  0  0
 10 26  1  0  0  0  0
 11 16  2  0  0  0  0
 11 17  1  0  0  0  0
 12 14  1  0  0  0  0
 12 21  1  0  0  0  0
 13 15  1  0  0  0  0
 13 18  2  0  0  0  0
 13 19  1  0  0  0  0
 14 27  1  0  0  0  0
 16 18  1  0  0  0  0
 16 28  1  0  0  0  0
 17 19  2  0  0  0  0
 17 29  1  0  0  0  0
 18 30  1  0  0  0  0
 19 31  1  0  0  0  0
 20 32  1  0  0  0  0
 20 33  1  0  0  0  0
 20 34  1  0  0  0  0
 21 35  1  0  0  0  0
 21 36  1  0  0  0  0
 21 37  1  0  0  0  0
M  END
>  <$CLUSTER>
316

>  <INDEX>
28888

$$$$
Chemdiv K786-8233
  MOE2020           3D

 40 40  0  0  0  0  0  0  0  0999 V2000
    0.0230    3.6500   -3.3670 S   0  0  0  0  0  0  0  0  0  0  0  0
   -0.3110    0.5310   -0.6600 C   0  0  0  0  0  0  0  0  0  0  0  0
    0.2900    1.5800   -1.5560 C   0  0  0  0  0  0  0  0  0  0  0  0
    0.6980    4.6030   -2.5120 O   0  0  0  0  0  0  0  0  0  0  0  0
    0.7310    2.9420   -4.4150 O   0  0  0  0  0  0  0  0  0  0  0  0
   -0.7390    2.4110   -2.2980 C   0  0  0  0  0  0  0  0  0  0  0  0
   -1.3730    4.4510   -4.0920 C   0  0  0  0  0  0  0  0  0  0  0  0
   -1.5250    0.3870   -0.5480 O   0  0  0  0  0  0  0  0  0  0  0  0
    0.6530   -0.2090    0.0040 N   0  0  0  0  0  0  0  0  0  0  0  0
   -0.9650    5.5550   -5.0480 C   0  0  0  0  0  0  0  0  0  0  0  0
   -0.1800    7.5990   -6.8170 C   0  0  0  0  0  0  0  0  0  0  0  0
    0.2930    8.8250   -7.8990 Cl  0  0  0  0  0  0  0  0  0  0  0  0
   -0.3530    7.8770   -5.4620 C   0  0  0  0  0  0  0  0  0  0  0  0
   -0.3960    6.3060   -7.2950 C   0  0  0  0  0  0  0  0  0  0  0  0
   -0.7430    6.8650   -4.5830 C   0  0  0  0  0  0  0  0  0  0  0  0
   -0.7860    5.2920   -6.4190 C   0  0  0  0  0  0  0  0  0  0  0  0
    0.3250   -1.2780    0.9280 C   0  0  0  0  0  0  0  0  0  0  0  0
    0.0810   -0.7470    2.3280 C   0  0  0  0  0  0  0  0  0  0  0  0
   -0.2530   -1.8580    3.3090 C   0  0  0  0  0  0  0  0  0  0  0  0
   -0.4970   -1.3240    4.7110 C   0  0  0  0  0  0  0  0  0  0  0  0
    0.9250    1.0830   -2.2900 H   0  0  0  0  0  0  0  0  0  0  0  0
    0.8960    2.2490   -0.9450 H   0  0  0  0  0  0  0  0  0  0  0  0
   -1.3500    1.7480   -2.9100 H   0  0  0  0  0  0  0  0  0  0  0  0
   -1.3720    2.9180   -1.5690 H   0  0  0  0  0  0  0  0  0  0  0  0
   -1.9830    4.8820   -3.2980 H   0  0  0  0  0  0  0  0  0  0  0  0
   -1.9580    3.7110   -4.6390 H   0  0  0  0  0  0  0  0  0  0  0  0
    1.6260    0.0050   -0.1620 H   0  0  0  0  0  0  0  0  0  0  0  0
   -0.1850    8.8770   -5.0910 H   0  0  0  0  0  0  0  0  0  0  0  0
   -0.2610    6.0900   -8.3440 H   0  0  0  0  0  0  0  0  0  0  0  0
   -0.8760    7.0900   -3.5350 H   0  0  0  0  0  0  0  0  0  0  0  0
   -0.9520    4.2940   -6.7970 H   0  0  0  0  0  0  0  0  0  0  0  0
    1.1520   -1.9870    0.9570 H   0  0  0  0  0  0  0  0  0  0  0  0
   -0.5750   -1.7840    0.5790 H   0  0  0  0  0  0  0  0  0  0  0  0
   -0.7510   -0.0430    2.2970 H   0  0  0  0  0  0  0  0  0  0  0  0
    0.9790   -0.2330    2.6710 H   0  0  0  0  0  0  0  0  0  0  0  0
    0.5790   -2.5620    3.3400 H   0  0  0  0  0  0  0  0  0  0  0  0
   -1.1510   -2.3720    2.9670 H   0  0  0  0  0  0  0  0  0  0  0  0
    0.3960   -0.8080    5.0640 H   0  0  0  0  0  0  0  0  0  0  0  0
   -0.7260   -2.1530    5.3810 H   0  0  0  0  0  0  0  0  0  0  0  0
   -1.3360   -0.6280    4.6940 H   0  0  0  0  0  0  0  0  0  0  0  0
  1  4  2  0  0  0  0
  1  5  2  0  0  0  0
  1  6  1  0  0  0  0
  1  7  1  0  0  0  0
  2  3  1  0  0  0  0
  2  8  2  0  0  0  0
  2  9  1  0  0  0  0
  3  6  1  0  0  0  0
  3 21  1  0  0  0  0
  3 22  1  0  0  0  0
  6 23  1  0  0  0  0
  6 24  1  0  0  0  0
  7 10  1  0  0  0  0
  7 25  1  0  0  0  0
  7 26  1  0  0  0  0
  9 17  1  0  0  0  0
  9 27  1  0  0  0  0
 10 15  2  0  0  0  0
 10 16  1  0  0  0  0
 11 12  1  0  0  0  0
 11 13  2  0  0  0  0
 11 14  1  0  0  0  0
 13 15  1  0  0  0  0
 13 28  1  0  0  0  0
 14 16  2  0  0  0  0
 14 29  1  0  0  0  0
 15 30  1  0  0  0  0
 16 31  1  0  0  0  0
 17 18  1  0  0  0  0
 17 32  1  0  0  0  0
 17 33  1  0  0  0  0
 18 19  1  0  0  0  0
 18 34  1  0  0  0  0
 18 35  1  0  0  0  0
 19 20  1  0  0  0  0
 19 36  1  0  0  0  0
 19 37  1  0  0  0  0
 20 38  1  0  0  0  0
 20 39  1  0  0  0  0
 20 40  1  0  0  0  0
M  END
>  <$CLUSTER>
317

>  <INDEX>
200565

$$$$
Aurora ka-06178
  MOE2020           3D

 25 25  0  0  0  0  0  0  0  0999 V2000
    0.3410   -0.0550    0.0400 C   0  0  0  0  0  0  0  0  0  0  0  0
   -2.0460   -0.0290    0.4840 C   0  0  0  0  0  0  0  0  0  0  0  0
   -0.8520    0.6520    0.2260 C   0  0  0  0  0  0  0  0  0  0  0  0
   -0.8650   -2.1320    0.3780 C   0  0  0  0  0  0  0  0  0  0  0  0
   -2.0500   -1.4210    0.5590 C   0  0  0  0  0  0  0  0  0  0  0  0
    0.3280   -1.4530    0.1210 C   0  0  0  0  0  0  0  0  0  0  0  0
    1.5970    0.6560   -0.2090 C   0  0  0  0  0  0  0  0  0  0  0  0
   -0.9290   -3.5550    0.4650 C   0  0  0  0  0  0  0  0  0  0  0  0
   -0.9360   -4.7170    0.5270 N   0  0  0  0  0  0  0  0  0  0  0  0
    1.8710    1.7660    0.2190 O   0  0  0  0  0  0  0  0  0  0  0  0
   -3.6260    0.9000    0.7280 Br  0  0  0  0  0  0  0  0  0  0  0  0
   -3.2210   -2.0850    0.8100 N   0  0  0  0  0  0  0  0  0  0  0  0
   -0.8650    2.0180    0.1410 O   0  0  0  0  0  0  0  0  0  0  0  0
    2.4080   -0.0750   -1.0090 O   0  0  0  0  0  0  0  0  0  0  0  0
    3.6820    0.4930   -1.3490 C   0  0  0  0  0  0  0  0  0  0  0  0
    4.4330   -0.4780   -2.2360 C   0  0  0  0  0  0  0  0  0  0  0  0
    1.2440   -2.0080   -0.0160 H   0  0  0  0  0  0  0  0  0  0  0  0
   -3.2280   -3.0940    0.8650 H   0  0  0  0  0  0  0  0  0  0  0  0
   -4.0780   -1.5660    0.9410 H   0  0  0  0  0  0  0  0  0  0  0  0
   -1.7250    2.4240    0.2700 H   0  0  0  0  0  0  0  0  0  0  0  0
    4.2550    0.6760   -0.4400 H   0  0  0  0  0  0  0  0  0  0  0  0
    3.5330    1.4330   -1.8800 H   0  0  0  0  0  0  0  0  0  0  0  0
    4.5810   -1.4170   -1.7030 H   0  0  0  0  0  0  0  0  0  0  0  0
    5.4020   -0.0540   -2.5000 H   0  0  0  0  0  0  0  0  0  0  0  0
    3.8570   -0.6620   -3.1430 H   0  0  0  0  0  0  0  0  0  0  0  0
  1  3  1  0  0  0  0
  1  6  2  0  0  0  0
  1  7  1  0  0  0  0
  2  3  2  0  0  0  0
  2  5  1  0  0  0  0
  2 11  1  0  0  0  0
  3 13  1  0  0  0  0
  4  5  2  0  0  0  0
  4  6  1  0  0  0  0
  4  8  1  0  0  0  0
  5 12  1  0  0  0  0
  6 17  1  0  0  0  0
  7 10  2  0  0  0  0
  7 14  1  0  0  0  0
  8  9  3  0  0  0  0
 12 18  1  0  0  0  0
 12 19  1  0  0  0  0
 13 20  1  0  0  0  0
 14 15  1  0  0  0  0
 15 16  1  0  0  0  0
 15 21  1  0  0  0  0
 15 22  1  0  0  0  0
 16 23  1  0  0  0  0
 16 24  1  0  0  0  0
 16 25  1  0  0  0  0
M  END
>  <$CLUSTER>
318

>  <INDEX>
202851

$$$$
Aurora ka-06959
  MOE2020           3D

 31 32  0  0  1  0  0  0  0  0999 V2000
    2.4590   -0.5460   -0.2040 C   0  0  0  0  0  0  0  0  0  0  0  0
    1.2910   -1.3060   -0.2700 C   0  0  0  0  0  0  0  0  0  0  0  0
    0.0360   -0.6980   -0.1130 C   0  0  0  0  0  0  0  0  0  0  0  0
    2.3880    0.8270    0.0190 C   0  0  0  0  0  0  0  0  0  0  0  0
   -0.0360    0.6980    0.1130 C   0  0  0  0  0  0  0  0  0  0  0  0
    1.1490    1.4470    0.1770 C   0  0  0  0  0  0  0  0  0  0  0  0
    3.8200   -1.2130   -0.3660 C   0  0  3  0  0  0  0  0  0  0  0  0
    3.8580   -2.0270   -1.5370 O   0  0  0  0  0  0  0  0  0  0  0  0
   -1.1490   -1.4470   -0.1770 C   0  0  0  0  0  0  0  0  0  0  0  0
   -1.2910    1.3060    0.2700 C   0  0  0  0  0  0  0  0  0  0  0  0
    4.1860   -2.0750    0.8360 C   0  0  0  0  0  0  0  0  0  0  0  0
    5.5990   -2.6480    0.8030 C   0  0  0  0  0  0  0  0  0  0  0  0
    5.9310   -3.4280    2.0650 C   0  0  0  0  0  0  0  0  0  0  0  0
   -2.3880   -0.8270   -0.0190 C   0  0  0  0  0  0  0  0  0  0  0  0
   -2.4590    0.5460    0.2040 C   0  0  0  0  0  0  0  0  0  0  0  0
    1.3530   -2.3700   -0.4430 H   0  0  0  0  0  0  0  0  0  0  0  0
    3.2940    1.4120    0.0700 H   0  0  0  0  0  0  0  0  0  0  0  0
    1.1010    2.5120    0.3500 H   0  0  0  0  0  0  0  0  0  0  0  0
    4.5450   -0.4040   -0.4520 H   0  0  0  0  0  0  0  0  0  0  0  0
    3.2090   -2.7260   -1.4260 H   0  0  0  0  0  0  0  0  0  0  0  0
   -1.1010   -2.5120   -0.3500 H   0  0  0  0  0  0  0  0  0  0  0  0
   -1.3530    2.3700    0.4430 H   0  0  0  0  0  0  0  0  0  0  0  0
    3.4830   -2.9070    0.8840 H   0  0  0  0  0  0  0  0  0  0  0  0
    4.0880   -1.4650    1.7340 H   0  0  0  0  0  0  0  0  0  0  0  0
    6.3090   -1.8270    0.7010 H   0  0  0  0  0  0  0  0  0  0  0  0
    5.6880   -3.3140   -0.0550 H   0  0  0  0  0  0  0  0  0  0  0  0
    5.8450   -2.7720    2.9310 H   0  0  0  0  0  0  0  0  0  0  0  0
    6.9490   -3.8110    1.9980 H   0  0  0  0  0  0  0  0  0  0  0  0
    5.2360   -4.2610    2.1710 H   0  0  0  0  0  0  0  0  0  0  0  0
   -3.2940   -1.4120   -0.0700 H   0  0  0  0  0  0  0  0  0  0  0  0
   -3.4200    1.0230    0.3260 H   0  0  0  0  0  0  0  0  0  0  0  0
  1  2  2  0  0  0  0
  1  4  1  0  0  0  0
  1  7  1  0  0  0  0
  2  3  1  0  0  0  0
  2 16  1  0  0  0  0
  3  5  2  0  0  0  0
  3  9  1  0  0  0  0
  4  6  2  0  0  0  0
  4 17  1  0  0  0  0
  5  6  1  0  0  0  0
  5 10  1  0  0  0  0
  6 18  1  0  0  0  0
  7  8  1  0  0  0  0
  7 11  1  0  0  0  0
  7 19  1  0  0  0  0
  8 20  1  0  0  0  0
  9 14  2  0  0  0  0
  9 21  1  0  0  0  0
 10 15  2  0  0  0  0
 10 22  1  0  0  0  0
 11 12  1  0  0  0  0
 11 23  1  0  0  0  0
 11 24  1  0  0  0  0
 12 13  1  0  0  0  0
 12 25  1  0  0  0  0
 12 26  1  0  0  0  0
 13 27  1  0  0  0  0
 13 28  1  0  0  0  0
 13 29  1  0  0  0  0
 14 15  1  0  0  0  0
 14 30  1  0  0  0  0
 15 31  1  0  0  0  0
M  END
>  <$CLUSTER>
319

>  <INDEX>
203161

$$$$
Otava 7016350283
  MOE2020           3D

 44 47  0  0  1  0  0  0  0  0999 V2000
   -0.5760    3.6670   -2.4680 C   0  0  0  0  0  0  0  0  0  0  0  0
    0.0490    4.4300   -1.4720 C   0  0  0  0  0  0  0  0  0  0  0  0
    0.8940    5.4890   -1.7880 C   0  0  0  0  0  0  0  0  0  0  0  0
    0.4920    5.0850   -4.1330 N   0  0  0  0  0  0  0  0  0  0  0  0
   -0.3370    4.0500   -3.8010 C   0  0  0  0  0  0  0  0  0  0  0  0
    1.0850    5.7730   -3.1260 C   0  0  0  0  0  0  0  0  0  0  0  0
   -1.0370    1.6940   -0.9880 N   0  3  3  0  0  0  0  0  0  0  0  0
   -1.5390    2.5490   -2.1110 C   0  0  0  0  0  0  0  0  0  0  0  0
    0.1420    0.8550   -1.3970 C   0  0  0  0  0  0  0  0  0  0  0  0
    0.5940   -0.1020   -0.3160 C   0  0  0  0  0  0  0  0  0  0  0  0
    1.5450    6.2640   -0.7970 C   0  0  0  0  0  0  0  0  0  0  0  0
   -0.2480   -0.4430    0.7630 C   0  0  0  0  0  0  0  0  0  0  0  0
    1.9310    6.8450   -3.4850 C   0  0  0  0  0  0  0  0  0  0  0  0
   -2.1210    0.8430   -0.3760 C   0  0  0  0  0  0  0  0  0  0  0  0
   -1.6060    0.2020    0.9190 C   0  0  0  0  0  0  0  0  0  0  0  0
   -0.1820    4.1010   -0.1540 O   0  0  0  0  0  0  0  0  0  0  0  0
    2.3810    7.3180   -1.1620 C   0  0  0  0  0  0  0  0  0  0  0  0
    2.5740    7.6090   -2.5080 C   0  0  0  0  0  0  0  0  0  0  0  0
    3.2370    8.3340    0.1230 Br  0  0  0  0  0  0  0  0  0  0  0  0
   -0.9720    3.3440   -4.9750 C   0  0  0  0  0  0  0  0  0  0  0  0
    1.8570   -0.7060   -0.4130 C   0  0  0  0  0  0  0  0  0  0  0  0
    0.2040   -1.3480    1.7350 C   0  0  0  0  0  0  0  0  0  0  0  0
    2.2890   -1.6130    0.5540 C   0  0  0  0  0  0  0  0  0  0  0  0
    1.4640   -1.9310    1.6280 C   0  0  0  0  0  0  0  0  0  0  0  0
   -0.7230    2.3350   -0.2730 H   0  0  0  0  0  0  0  0  0  0  0  0
   -1.6860    1.9210   -2.9900 H   0  0  0  0  0  0  0  0  0  0  0  0
   -2.4910    2.9890   -1.8160 H   0  0  0  0  0  0  0  0  0  0  0  0
    0.9710    1.5180   -1.6420 H   0  0  0  0  0  0  0  0  0  0  0  0
   -0.1330    0.2770   -2.2790 H   0  0  0  0  0  0  0  0  0  0  0  0
    1.3930    6.0370    0.2480 H   0  0  0  0  0  0  0  0  0  0  0  0
    2.0830    7.0770   -4.5290 H   0  0  0  0  0  0  0  0  0  0  0  0
   -2.4070    0.0600   -1.0790 H   0  0  0  0  0  0  0  0  0  0  0  0
   -2.9870    1.4650   -0.1530 H   0  0  0  0  0  0  0  0  0  0  0  0
   -1.5370    0.9750    1.6850 H   0  0  0  0  0  0  0  0  0  0  0  0
   -2.3180   -0.5610    1.2350 H   0  0  0  0  0  0  0  0  0  0  0  0
    0.2760    4.6490    0.4870 H   0  0  0  0  0  0  0  0  0  0  0  0
    3.2200    8.4250   -2.7980 H   0  0  0  0  0  0  0  0  0  0  0  0
   -1.6110    2.5390   -4.6120 H   0  0  0  0  0  0  0  0  0  0  0  0
   -0.1930    2.9290   -5.6140 H   0  0  0  0  0  0  0  0  0  0  0  0
   -1.5700    4.0540   -5.5460 H   0  0  0  0  0  0  0  0  0  0  0  0
    2.5010   -0.4660   -1.2460 H   0  0  0  0  0  0  0  0  0  0  0  0
   -0.4310   -1.5950    2.5730 H   0  0  0  0  0  0  0  0  0  0  0  0
    3.2640   -2.0690    0.4690 H   0  0  0  0  0  0  0  0  0  0  0  0
    1.8010   -2.6300    2.3790 H   0  0  0  0  0  0  0  0  0  0  0  0
  1  2  2  0  0  0  0
  1  5  1  0  0  0  0
  1  8  1  0  0  0  0
  2  3  1  0  0  0  0
  2 16  1  0  0  0  0
  3  6  2  0  0  0  0
  3 11  1  0  0  0  0
  4  5  2  0  0  0  0
  4  6  1  0  0  0  0
  5 20  1  0  0  0  0
  6 13  1  0  0  0  0
  7  8  1  0  0  0  0
  7  9  1  0  0  0  0
  7 14  1  0  0  0  0
  7 25  1  0  0  0  0
  8 26  1  0  0  0  0
  8 27  1  0  0  0  0
  9 10  1  0  0  0  0
  9 28  1  0  0  0  0
  9 29  1  0  0  0  0
 10 12  2  0  0  0  0
 10 21  1  0  0  0  0
 11 17  2  0  0  0  0
 11 30  1  0  0  0  0
 12 15  1  0  0  0  0
 12 22  1  0  0  0  0
 13 18  2  0  0  0  0
 13 31  1  0  0  0  0
 14 15  1  0  0  0  0
 14 32  1  0  0  0  0
 14 33  1  0  0  0  0
 15 34  1  0  0  0  0
 15 35  1  0  0  0  0
 16 36  1  0  0  0  0
 17 18  1  0  0  0  0
 17 19  1  0  0  0  0
 18 37  1  0  0  0  0
 20 38  1  0  0  0  0
 20 39  1  0  0  0  0
 20 40  1  0  0  0  0
 21 23  2  0  0  0  0
 21 41  1  0  0  0  0
 22 24  2  0  0  0  0
 22 42  1  0  0  0  0
 23 24  1  0  0  0  0
 23 43  1  0  0  0  0
 24 44  1  0  0  0  0
M  CHG  1   7   1
M  END
>  <$CLUSTER>
320

>  <INDEX>
481791

$$$$
Chembridge 5266990
  MOE2020           3D

 40 42  0  0  0  0  0  0  0  0999 V2000
   -0.2100   -1.5620   -1.0230 N   0  0  0  0  0  0  0  0  0  0  0  0
   -0.0800   -2.3070   -2.1270 C   0  0  0  0  0  0  0  0  0  0  0  0
    0.0510    0.8220    0.6960 N   0  3  0  0  0  0  0  0  0  0  0  0
    1.0470   -3.1260   -2.3490 C   0  0  0  0  0  0  0  0  0  0  0  0
   -1.3610   -0.6890   -0.7360 C   0  0  0  0  0  0  0  0  0  0  0  0
    0.7800   -1.5030    0.0660 C   0  0  0  0  0  0  0  0  0  0  0  0
    0.4550    2.2220    1.0390 C   0  0  0  0  0  0  0  0  0  0  0  0
   -0.9610    0.7750   -0.4350 C   0  0  0  0  0  0  0  0  0  0  0  0
    1.2470   -0.0640    0.3930 C   0  0  0  0  0  0  0  0  0  0  0  0
    1.1840   -3.9070   -3.5040 C   0  0  0  0  0  0  0  0  0  0  0  0
    2.5790   -4.8680   -3.6930 Cl  0  0  0  0  0  0  0  0  0  0  0  0
    1.1500    2.3060    2.3890 C   0  0  0  0  0  0  0  0  0  0  0  0
   -1.0620   -2.3240   -3.1390 C   0  0  0  0  0  0  0  0  0  0  0  0
   -0.9290   -3.1030   -4.2960 C   0  0  0  0  0  0  0  0  0  0  0  0
    0.1960   -3.8960   -4.4780 C   0  0  0  0  0  0  0  0  0  0  0  0
    0.4020    2.4870    3.5550 C   0  0  0  0  0  0  0  0  0  0  0  0
    2.5350    2.1350    2.4770 C   0  0  0  0  0  0  0  0  0  0  0  0
    3.1680    2.1800    3.7200 C   0  0  0  0  0  0  0  0  0  0  0  0
    1.0380    2.5310    4.7960 C   0  0  0  0  0  0  0  0  0  0  0  0
    2.4200    2.3790    4.8780 C   0  0  0  0  0  0  0  0  0  0  0  0
   -0.4000    0.4520    1.5210 H   0  0  0  0  0  0  0  0  0  0  0  0
    1.8290   -3.1520   -1.6050 H   0  0  0  0  0  0  0  0  0  0  0  0
   -1.8900   -1.0880    0.1300 H   0  0  0  0  0  0  0  0  0  0  0  0
   -2.0240   -0.6950   -1.6010 H   0  0  0  0  0  0  0  0  0  0  0  0
    1.6500   -2.0910   -0.2260 H   0  0  0  0  0  0  0  0  0  0  0  0
    0.3340   -1.9340    0.9620 H   0  0  0  0  0  0  0  0  0  0  0  0
   -0.4370    2.8480    1.0640 H   0  0  0  0  0  0  0  0  0  0  0  0
    1.1350    2.5890    0.2710 H   0  0  0  0  0  0  0  0  0  0  0  0
   -0.5230    1.2190   -1.3290 H   0  0  0  0  0  0  0  0  0  0  0  0
   -1.8490    1.3390   -0.1470 H   0  0  0  0  0  0  0  0  0  0  0  0
    1.9060   -0.0880    1.2610 H   0  0  0  0  0  0  0  0  0  0  0  0
    1.7880    0.3420   -0.4620 H   0  0  0  0  0  0  0  0  0  0  0  0
   -1.9460   -1.7160   -3.0180 H   0  0  0  0  0  0  0  0  0  0  0  0
   -1.7040   -3.0870   -5.0480 H   0  0  0  0  0  0  0  0  0  0  0  0
    0.3010   -4.4980   -5.3680 H   0  0  0  0  0  0  0  0  0  0  0  0
   -0.6710    2.5930    3.4960 H   0  0  0  0  0  0  0  0  0  0  0  0
    3.1160    1.9680    1.5820 H   0  0  0  0  0  0  0  0  0  0  0  0
    4.2390    2.0600    3.7840 H   0  0  0  0  0  0  0  0  0  0  0  0
    0.4580    2.6830    5.6940 H   0  0  0  0  0  0  0  0  0  0  0  0
    2.9110    2.4150    5.8390 H   0  0  0  0  0  0  0  0  0  0  0  0
  1  2  1  0  0  0  0
  1  5  1  0  0  0  0
  1  6  1  0  0  0  0
  2  4  2  0  0  0  0
  2 13  1  0  0  0  0
  3  7  1  0  0  0  0
  3  8  1  0  0  0  0
  3  9  1  0  0  0  0
  3 21  1  0  0  0  0
  4 10  1  0  0  0  0
  4 22  1  0  0  0  0
  5  8  1  0  0  0  0
  5 23  1  0  0  0  0
  5 24  1  0  0  0  0
  6  9  1  0  0  0  0
  6 25  1  0  0  0  0
  6 26  1  0  0  0  0
  7 12  1  0  0  0  0
  7 27  1  0  0  0  0
  7 28  1  0  0  0  0
  8 29  1  0  0  0  0
  8 30  1  0  0  0  0
  9 31  1  0  0  0  0
  9 32  1  0  0  0  0
 10 11  1  0  0  0  0
 10 15  2  0  0  0  0
 12 16  1  0  0  0  0
 12 17  2  0  0  0  0
 13 14  2  0  0  0  0
 13 33  1  0  0  0  0
 14 15  1  0  0  0  0
 14 34  1  0  0  0  0
 15 35  1  0  0  0  0
 16 19  2  0  0  0  0
 16 36  1  0  0  0  0
 17 18  1  0  0  0  0
 17 37  1  0  0  0  0
 18 20  2  0  0  0  0
 18 38  1  0  0  0  0
 19 20  1  0  0  0  0
 19 39  1  0  0  0  0
 20 40  1  0  0  0  0
M  CHG  1   3   1
M  END
>  <$CLUSTER>
321

>  <INDEX>
40348

$$$$
Akos LT-992 X 0028
  MOE2020           3D

 30 30  0  0  0  0  0  0  0  0999 V2000
    2.1260   -0.2740    0.4940 C   0  0  0  0  0  0  0  0  0  0  0  0
   -2.3820    0.9060   -1.4050 N   0  3  0  0  0  0  0  0  0  0  0  0
   -0.6390   -0.0570    0.0490 C   0  0  0  0  0  0  0  0  0  0  0  0
    3.8000   -0.3980    0.7790 Cl  0  0  0  0  0  0  0  0  0  0  0  0
    1.4750   -1.2040   -0.3130 C   0  0  0  0  0  0  0  0  0  0  0  0
    1.4060    0.7680    1.0750 C   0  0  0  0  0  0  0  0  0  0  0  0
    0.1020   -1.0960   -0.5370 C   0  0  0  0  0  0  0  0  0  0  0  0
    0.0330    0.8790    0.8530 C   0  0  0  0  0  0  0  0  0  0  0  0
   -2.1200    0.0790   -0.2170 C   0  0  0  0  0  0  0  0  0  0  0  0
   -3.8060    1.1010   -1.7510 C   0  0  0  0  0  0  0  0  0  0  0  0
   -3.9340    1.9690   -2.9910 C   0  0  0  0  0  0  0  0  0  0  0  0
   -5.3830    2.1950   -3.3840 C   0  0  0  0  0  0  0  0  0  0  0  0
   -5.5070    3.0630   -4.6250 C   0  0  0  0  0  0  0  0  0  0  0  0
   -1.9280    0.4680   -2.1940 H   0  0  0  0  0  0  0  0  0  0  0  0
   -1.9740    1.8160   -1.2450 H   0  0  0  0  0  0  0  0  0  0  0  0
    2.0340   -2.0100   -0.7660 H   0  0  0  0  0  0  0  0  0  0  0  0
    1.9120    1.4910    1.6980 H   0  0  0  0  0  0  0  0  0  0  0  0
   -0.3960   -1.8180   -1.1670 H   0  0  0  0  0  0  0  0  0  0  0  0
   -0.5180    1.6910    1.3030 H   0  0  0  0  0  0  0  0  0  0  0  0
   -2.5440   -0.9130   -0.3760 H   0  0  0  0  0  0  0  0  0  0  0  0
   -2.5940    0.5420    0.6480 H   0  0  0  0  0  0  0  0  0  0  0  0
   -4.3150    1.5860   -0.9180 H   0  0  0  0  0  0  0  0  0  0  0  0
   -4.2660    0.1310   -1.9420 H   0  0  0  0  0  0  0  0  0  0  0  0
   -3.4180    1.4800   -3.8170 H   0  0  0  0  0  0  0  0  0  0  0  0
   -3.4690    2.9350   -2.7930 H   0  0  0  0  0  0  0  0  0  0  0  0
   -5.8990    2.6850   -2.5590 H   0  0  0  0  0  0  0  0  0  0  0  0
   -5.8490    1.2300   -3.5820 H   0  0  0  0  0  0  0  0  0  0  0  0
   -5.0440    4.0320   -4.4380 H   0  0  0  0  0  0  0  0  0  0  0  0
   -6.5610    3.2040   -4.8660 H   0  0  0  0  0  0  0  0  0  0  0  0
   -5.0050    2.5760   -5.4610 H   0  0  0  0  0  0  0  0  0  0  0  0
  1  4  1  0  0  0  0
  1  5  2  0  0  0  0
  1  6  1  0  0  0  0
  2  9  1  0  0  0  0
  2 10  1  0  0  0  0
  2 14  1  0  0  0  0
  2 15  1  0  0  0  0
  3  7  2  0  0  0  0
  3  8  1  0  0  0  0
  3  9  1  0  0  0  0
  5  7  1  0  0  0  0
  5 16  1  0  0  0  0
  6  8  2  0  0  0  0
  6 17  1  0  0  0  0
  7 18  1  0  0  0  0
  8 19  1  0  0  0  0
  9 20  1  0  0  0  0
  9 21  1  0  0  0  0
 10 11  1  0  0  0  0
 10 22  1  0  0  0  0
 10 23  1  0  0  0  0
 11 12  1  0  0  0  0
 11 24  1  0  0  0  0
 11 25  1  0  0  0  0
 12 13  1  0  0  0  0
 12 26  1  0  0  0  0
 12 27  1  0  0  0  0
 13 28  1  0  0  0  0
 13 29  1  0  0  0  0
 13 30  1  0  0  0  0
M  CHG  1   2   1
M  END
>  <$CLUSTER>
322

>  <INDEX>
208695

$$$$
Chem T&I AMCLME-05623
  MOE2020           3D

 31 32  0  0  0  0  0  0  0  0999 V2000
    2.6810    0.2960   -1.1310 N   0  3  0  0  0  0  0  0  0  0  0  0
    1.3010    0.6250   -1.5700 C   0  0  0  0  0  0  0  0  0  0  0  0
    0.2630    0.2740   -0.5450 C   0  0  0  0  0  0  0  0  0  0  0  0
   -1.6350   -0.4010    1.4050 C   0  0  0  0  0  0  0  0  0  0  0  0
   -2.5330   -0.6450    2.3600 F   0  0  0  0  0  0  0  0  0  0  0  0
   -1.2690   -1.3330    0.4360 C   0  0  0  0  0  0  0  0  0  0  0  0
   -1.0530    0.8650    1.4080 C   0  0  0  0  0  0  0  0  0  0  0  0
   -0.3220   -0.9990   -0.5330 C   0  0  0  0  0  0  0  0  0  0  0  0
   -0.1050    1.2010    0.4400 C   0  0  0  0  0  0  0  0  0  0  0  0
    3.1860    1.1720   -0.0060 C   0  0  0  0  0  0  0  0  0  0  0  0
    3.6640    0.2830   -2.2720 C   0  0  0  0  0  0  0  0  0  0  0  0
    4.5310    0.7050    0.4860 C   0  0  0  0  0  0  0  0  0  0  0  0
    5.0280   -0.1970   -1.8110 C   0  0  0  0  0  0  0  0  0  0  0  0
    5.5460    0.6460   -0.6510 C   0  0  0  0  0  0  0  0  0  0  0  0
    2.6130   -0.6430   -0.7640 H   0  0  0  0  0  0  0  0  0  0  0  0
    1.0860    0.0730   -2.4850 H   0  0  0  0  0  0  0  0  0  0  0  0
    1.2450    1.6950   -1.7690 H   0  0  0  0  0  0  0  0  0  0  0  0
   -1.7190   -2.3150    0.4350 H   0  0  0  0  0  0  0  0  0  0  0  0
   -1.3360    1.5870    2.1600 H   0  0  0  0  0  0  0  0  0  0  0  0
   -0.0380   -1.7270   -1.2790 H   0  0  0  0  0  0  0  0  0  0  0  0
    0.3480    2.1810    0.4500 H   0  0  0  0  0  0  0  0  0  0  0  0
    2.4740    1.1370    0.8190 H   0  0  0  0  0  0  0  0  0  0  0  0
    3.2750    2.1970   -0.3660 H   0  0  0  0  0  0  0  0  0  0  0  0
    3.7580    1.2920   -2.6730 H   0  0  0  0  0  0  0  0  0  0  0  0
    3.2960   -0.3840   -3.0510 H   0  0  0  0  0  0  0  0  0  0  0  0
    4.4250   -0.2890    0.9200 H   0  0  0  0  0  0  0  0  0  0  0  0
    4.8910    1.3970    1.2480 H   0  0  0  0  0  0  0  0  0  0  0  0
    5.7290   -0.1270   -2.6420 H   0  0  0  0  0  0  0  0  0  0  0  0
    4.9490   -1.2350   -1.4890 H   0  0  0  0  0  0  0  0  0  0  0  0
    6.4720    0.2070   -0.2790 H   0  0  0  0  0  0  0  0  0  0  0  0
    5.7410    1.6580   -1.0060 H   0  0  0  0  0  0  0  0  0  0  0  0
  1  2  1  0  0  0  0
  1 10  1  0  0  0  0
  1 11  1  0  0  0  0
  1 15  1  0  0  0  0
  2  3  1  0  0  0  0
  2 16  1  0  0  0  0
  2 17  1  0  0  0  0
  3  8  2  0  0  0  0
  3  9  1  0  0  0  0
  4  5  1  0  0  0  0
  4  6  2  0  0  0  0
  4  7  1  0  0  0  0
  6  8  1  0  0  0  0
  6 18  1  0  0  0  0
  7  9  2  0  0  0  0
  7 19  1  0  0  0  0
  8 20  1  0  0  0  0
  9 21  1  0  0  0  0
 10 12  1  0  0  0  0
 10 22  1  0  0  0  0
 10 23  1  0  0  0  0
 11 13  1  0  0  0  0
 11 24  1  0  0  0  0
 11 25  1  0  0  0  0
 12 14  1  0  0  0  0
 12 26  1  0  0  0  0
 12 27  1  0  0  0  0
 13 14  1  0  0  0  0
 13 28  1  0  0  0  0
 13 29  1  0  0  0  0
 14 30  1  0  0  0  0
 14 31  1  0  0  0  0
M  CHG  1   1   1
M  END
>  <$CLUSTER>
323

>  <INDEX>
508764

$$$$
Chembridge 5425656
  MOE2020           3D

 46 48  0  0  1  0  0  0  0  0999 V2000
   -2.9210    0.1330    0.0680 N   0  3  3  0  0  0  0  0  0  0  0  0
    1.5310    0.4550   -1.1340 N   0  0  0  0  0  0  0  0  0  0  0  0
   -0.4620    0.3410    0.2650 C   0  0  0  0  0  0  0  0  0  0  0  0
   -1.8070    0.9100    0.6390 C   0  0  0  0  0  0  0  0  0  0  0  0
   -4.2480    0.4570    0.7250 C   0  0  0  0  0  0  0  0  0  0  0  0
   -3.0540    0.2380   -1.4370 C   0  0  0  0  0  0  0  0  0  0  0  0
   -3.9100   -0.8360   -2.0530 C   0  0  0  0  0  0  0  0  0  0  0  0
   -4.3040   -0.0310    2.1760 C   0  0  0  0  0  0  0  0  0  0  0  0
   -4.0340   -0.7220   -3.5300 C   0  0  0  0  0  0  0  0  0  0  0  0
    0.3170    0.9230   -0.7390 C   0  0  0  0  0  0  0  0  0  0  0  0
    1.9920   -0.6520   -0.4980 C   0  0  0  0  0  0  0  0  0  0  0  0
    0.0540   -0.8030    0.8910 C   0  0  0  0  0  0  0  0  0  0  0  0
   -4.7390   -1.3240    2.4570 C   0  0  0  0  0  0  0  0  0  0  0  0
   -3.8530    0.7960    3.2030 C   0  0  0  0  0  0  0  0  0  0  0  0
   -3.1010   -1.3420   -4.3830 C   0  0  0  0  0  0  0  0  0  0  0  0
   -5.0510    0.0560   -4.1120 C   0  0  0  0  0  0  0  0  0  0  0  0
    1.2960   -1.3060    0.5080 C   0  0  0  0  0  0  0  0  0  0  0  0
   -3.1980   -1.2050   -5.7690 C   0  0  0  0  0  0  0  0  0  0  0  0
   -5.1460    0.1910   -5.4970 C   0  0  0  0  0  0  0  0  0  0  0  0
   -4.7620   -1.7770    3.7770 C   0  0  0  0  0  0  0  0  0  0  0  0
   -3.8770    0.3400    4.5220 C   0  0  0  0  0  0  0  0  0  0  0  0
   -4.2200   -0.4400   -6.3240 C   0  0  0  0  0  0  0  0  0  0  0  0
   -4.3340   -0.9450    4.8080 C   0  0  0  0  0  0  0  0  0  0  0  0
   -2.6760   -0.8250    0.2720 H   0  0  0  0  0  0  0  0  0  0  0  0
   -1.8990    0.9080    1.7250 H   0  0  0  0  0  0  0  0  0  0  0  0
   -1.8690    1.9340    0.2710 H   0  0  0  0  0  0  0  0  0  0  0  0
   -5.0470   -0.0240    0.1610 H   0  0  0  0  0  0  0  0  0  0  0  0
   -4.3930    1.5370    0.7110 H   0  0  0  0  0  0  0  0  0  0  0  0
   -2.0580    0.1750   -1.8740 H   0  0  0  0  0  0  0  0  0  0  0  0
   -3.4950    1.2060   -1.6750 H   0  0  0  0  0  0  0  0  0  0  0  0
   -4.9070   -0.7740   -1.6170 H   0  0  0  0  0  0  0  0  0  0  0  0
   -3.4700   -1.8050   -1.8180 H   0  0  0  0  0  0  0  0  0  0  0  0
   -0.0710    1.8020   -1.2330 H   0  0  0  0  0  0  0  0  0  0  0  0
    2.9540   -1.0450   -0.7910 H   0  0  0  0  0  0  0  0  0  0  0  0
   -0.5110   -1.2940    1.6700 H   0  0  0  0  0  0  0  0  0  0  0  0
   -5.0580   -1.9740    1.6560 H   0  0  0  0  0  0  0  0  0  0  0  0
   -3.4860    1.7870    2.9790 H   0  0  0  0  0  0  0  0  0  0  0  0
   -2.3010   -1.9310   -3.9600 H   0  0  0  0  0  0  0  0  0  0  0  0
   -5.7680    0.5560   -3.4780 H   0  0  0  0  0  0  0  0  0  0  0  0
    1.7070   -2.1840    0.9830 H   0  0  0  0  0  0  0  0  0  0  0  0
   -2.4800   -1.6930   -6.4110 H   0  0  0  0  0  0  0  0  0  0  0  0
   -5.9380    0.7850   -5.9280 H   0  0  0  0  0  0  0  0  0  0  0  0
   -5.1120   -2.7740    3.9990 H   0  0  0  0  0  0  0  0  0  0  0  0
   -3.5410    0.9840    5.3220 H   0  0  0  0  0  0  0  0  0  0  0  0
   -4.2950   -0.3360   -7.3960 H   0  0  0  0  0  0  0  0  0  0  0  0
   -4.3560   -1.2950    5.8290 H   0  0  0  0  0  0  0  0  0  0  0  0
  1  4  1  0  0  0  0
  1  5  1  0  0  0  0
  1  6  1  0  0  0  0
  1 24  1  0  0  0  0
  2 10  2  0  0  0  0
  2 11  1  0  0  0  0
  3  4  1  0  0  0  0
  3 10  1  0  0  0  0
  3 12  2  0  0  0  0
  4 25  1  0  0  0  0
  4 26  1  0  0  0  0
  5  8  1  0  0  0  0
  5 27  1  0  0  0  0
  5 28  1  0  0  0  0
  6  7  1  0  0  0  0
  6 29  1  0  0  0  0
  6 30  1  0  0  0  0
  7  9  1  0  0  0  0
  7 31  1  0  0  0  0
  7 32  1  0  0  0  0
  8 13  2  0  0  0  0
  8 14  1  0  0  0  0
  9 15  2  0  0  0  0
  9 16  1  0  0  0  0
 10 33  1  0  0  0  0
 11 17  2  0  0  0  0
 11 34  1  0  0  0  0
 12 17  1  0  0  0  0
 12 35  1  0  0  0  0
 13 20  1  0  0  0  0
 13 36  1  0  0  0  0
 14 21  2  0  0  0  0
 14 37  1  0  0  0  0
 15 18  1  0  0  0  0
 15 38  1  0  0  0  0
 16 19  2  0  0  0  0
 16 39  1  0  0  0  0
 17 40  1  0  0  0  0
 18 22  2  0  0  0  0
 18 41  1  0  0  0  0
 19 22  1  0  0  0  0
 19 42  1  0  0  0  0
 20 23  2  0  0  0  0
 20 43  1  0  0  0  0
 21 23  1  0  0  0  0
 21 44  1  0  0  0  0
 22 45  1  0  0  0  0
 23 46  1  0  0  0  0
M  CHG  1   1   1
M  END
>  <$CLUSTER>
324

>  <INDEX>
45057

$$$$
Akos LT-1098 X 5444
  MOE2020           3D

 42 43  0  0  0  0  0  0  0  0999 V2000
    0.1640   -0.3040    0.7700 C   0  0  0  0  0  0  0  0  0  0  0  0
    0.1060    0.4450   -0.4220 C   0  0  0  0  0  0  0  0  0  0  0  0
    2.6470    2.2170   -2.4220 C   0  0  0  0  0  0  0  0  0  0  0  0
    1.3230    0.9330   -0.8810 O   0  0  0  0  0  0  0  0  0  0  0  0
   -1.0220   -0.8580    1.2830 C   0  0  0  0  0  0  0  0  0  0  0  0
    1.2850    1.7680   -2.0440 C   0  0  0  0  0  0  0  0  0  0  0  0
    2.9210    2.5760   -3.7550 C   0  0  0  0  0  0  0  0  0  0  0  0
   -1.1240    0.6370   -1.0700 C   0  0  0  0  0  0  0  0  0  0  0  0
   -2.2390   -0.6610    0.6330 C   0  0  0  0  0  0  0  0  0  0  0  0
    1.9510    2.4720   -4.6760 F   0  0  0  0  0  0  0  0  0  0  0  0
   -2.2900    0.0850   -0.5390 C   0  0  0  0  0  0  0  0  0  0  0  0
    2.3230   -1.5100    0.7830 N   0  3  0  0  0  0  0  0  0  0  0  0
   -3.8000   -1.3860    1.3170 Br  0  0  0  0  0  0  0  0  0  0  0  0
    1.4740   -0.5350    1.4860 C   0  0  0  0  0  0  0  0  0  0  0  0
    4.4400   -2.3730   -0.7860 O   0  0  0  0  0  0  0  0  0  0  0  0
    3.6920    2.3770   -1.4880 C   0  0  0  0  0  0  0  0  0  0  0  0
    4.1700    3.0410   -4.1550 C   0  0  0  0  0  0  0  0  0  0  0  0
    3.6260   -1.8020    1.4080 C   0  0  0  0  0  0  0  0  0  0  0  0
    4.3960   -2.8180    0.5830 C   0  0  0  0  0  0  0  0  0  0  0  0
    5.1460   -3.2780   -1.6070 C   0  0  0  0  0  0  0  0  0  0  0  0
    4.9500    2.8430   -1.8820 C   0  0  0  0  0  0  0  0  0  0  0  0
    5.1910    3.1720   -3.2150 C   0  0  0  0  0  0  0  0  0  0  0  0
   -0.9900   -1.4430    2.1910 H   0  0  0  0  0  0  0  0  0  0  0  0
    0.8530    1.2060   -2.8720 H   0  0  0  0  0  0  0  0  0  0  0  0
    0.6670    2.6410   -1.8350 H   0  0  0  0  0  0  0  0  0  0  0  0
   -1.1680    1.2140   -1.9820 H   0  0  0  0  0  0  0  0  0  0  0  0
   -3.2350    0.2380   -1.0400 H   0  0  0  0  0  0  0  0  0  0  0  0
    2.4990   -1.1540   -0.1460 H   0  0  0  0  0  0  0  0  0  0  0  0
    1.8100   -2.3770    0.7190 H   0  0  0  0  0  0  0  0  0  0  0  0
    1.2660   -0.9080    2.4890 H   0  0  0  0  0  0  0  0  0  0  0  0
    2.0090    0.4120    1.5550 H   0  0  0  0  0  0  0  0  0  0  0  0
    3.5170    2.1350   -0.4500 H   0  0  0  0  0  0  0  0  0  0  0  0
    4.3470    3.2990   -5.1890 H   0  0  0  0  0  0  0  0  0  0  0  0
    3.4620   -2.2020    2.4080 H   0  0  0  0  0  0  0  0  0  0  0  0
    4.2060   -0.8810    1.4760 H   0  0  0  0  0  0  0  0  0  0  0  0
    5.4110   -2.9100    0.9700 H   0  0  0  0  0  0  0  0  0  0  0  0
    3.8980   -3.7860    0.6370 H   0  0  0  0  0  0  0  0  0  0  0  0
    5.1570   -2.9070   -2.6320 H   0  0  0  0  0  0  0  0  0  0  0  0
    4.6570   -4.2520   -1.5790 H   0  0  0  0  0  0  0  0  0  0  0  0
    6.1700   -3.3750   -1.2450 H   0  0  0  0  0  0  0  0  0  0  0  0
    5.7380    2.9480   -1.1510 H   0  0  0  0  0  0  0  0  0  0  0  0
    6.1650    3.5270   -3.5180 H   0  0  0  0  0  0  0  0  0  0  0  0
  1  2  2  0  0  0  0
  1  5  1  0  0  0  0
  1 14  1  0  0  0  0
  2  4  1  0  0  0  0
  2  8  1  0  0  0  0
  3  6  1  0  0  0  0
  3  7  2  0  0  0  0
  3 16  1  0  0  0  0
  4  6  1  0  0  0  0
  5  9  2  0  0  0  0
  5 23  1  0  0  0  0
  6 24  1  0  0  0  0
  6 25  1  0  0  0  0
  7 10  1  0  0  0  0
  7 17  1  0  0  0  0
  8 11  2  0  0  0  0
  8 26  1  0  0  0  0
  9 11  1  0  0  0  0
  9 13  1  0  0  0  0
 11 27  1  0  0  0  0
 12 14  1  0  0  0  0
 12 18  1  0  0  0  0
 12 28  1  0  0  0  0
 12 29  1  0  0  0  0
 14 30  1  0  0  0  0
 14 31  1  0  0  0  0
 15 19  1  0  0  0  0
 15 20  1  0  0  0  0
 16 21  2  0  0  0  0
 16 32  1  0  0  0  0
 17 22  2  0  0  0  0
 17 33  1  0  0  0  0
 18 19  1  0  0  0  0
 18 34  1  0  0  0  0
 18 35  1  0  0  0  0
 19 36  1  0  0  0  0
 19 37  1  0  0  0  0
 20 38  1  0  0  0  0
 20 39  1  0  0  0  0
 20 40  1  0  0  0  0
 21 22  1  0  0  0  0
 21 41  1  0  0  0  0
 22 42  1  0  0  0  0
M  CHG  1  12   1
M  END
>  <$CLUSTER>
325

>  <INDEX>
206217

$$$$
Akos LT-1074 X 1632
  MOE2020           3D

 50 51  0  0  0  0  0  0  0  0999 V2000
    0.1640   -0.3040    0.7700 C   0  0  0  0  0  0  0  0  0  0  0  0
    0.1060    0.4450   -0.4220 C   0  0  0  0  0  0  0  0  0  0  0  0
    2.6470    2.2170   -2.4220 C   0  0  0  0  0  0  0  0  0  0  0  0
    1.3230    0.9330   -0.8810 O   0  0  0  0  0  0  0  0  0  0  0  0
   -1.0220   -0.8580    1.2830 C   0  0  0  0  0  0  0  0  0  0  0  0
    1.2850    1.7680   -2.0440 C   0  0  0  0  0  0  0  0  0  0  0  0
    2.9210    2.5760   -3.7550 C   0  0  0  0  0  0  0  0  0  0  0  0
   -1.1240    0.6370   -1.0700 C   0  0  0  0  0  0  0  0  0  0  0  0
   -2.2390   -0.6610    0.6330 C   0  0  0  0  0  0  0  0  0  0  0  0
    6.4490   -4.1380    0.3510 N   0  3  0  0  0  0  0  0  0  0  0  0
    1.9510    2.4720   -4.6760 F   0  0  0  0  0  0  0  0  0  0  0  0
    2.3230   -1.5100    0.7830 N   0  3  0  0  0  0  0  0  0  0  0  0
   -2.2900    0.0850   -0.5390 C   0  0  0  0  0  0  0  0  0  0  0  0
   -3.6570   -1.3420    1.2880 Cl  0  0  0  0  0  0  0  0  0  0  0  0
    1.4740   -0.5350    1.4860 C   0  0  0  0  0  0  0  0  0  0  0  0
    4.3960   -2.8180    0.5830 C   0  0  0  0  0  0  0  0  0  0  0  0
    3.6920    2.3770   -1.4880 C   0  0  0  0  0  0  0  0  0  0  0  0
    5.7470   -3.1470    1.1920 C   0  0  0  0  0  0  0  0  0  0  0  0
    3.6260   -1.8020    1.4080 C   0  0  0  0  0  0  0  0  0  0  0  0
    4.1700    3.0410   -4.1550 C   0  0  0  0  0  0  0  0  0  0  0  0
    7.9350   -4.2160    0.7120 C   0  0  0  0  0  0  0  0  0  0  0  0
    5.8610   -5.5310    0.3680 C   0  0  0  0  0  0  0  0  0  0  0  0
    4.9500    2.8430   -1.8820 C   0  0  0  0  0  0  0  0  0  0  0  0
    5.1910    3.1720   -3.2150 C   0  0  0  0  0  0  0  0  0  0  0  0
   -0.9900   -1.4430    2.1910 H   0  0  0  0  0  0  0  0  0  0  0  0
    0.8530    1.2060   -2.8720 H   0  0  0  0  0  0  0  0  0  0  0  0
    0.6670    2.6410   -1.8350 H   0  0  0  0  0  0  0  0  0  0  0  0
   -1.1680    1.2140   -1.9820 H   0  0  0  0  0  0  0  0  0  0  0  0
    6.3260   -3.7910   -0.5900 H   0  0  0  0  0  0  0  0  0  0  0  0
    2.4990   -1.1540   -0.1460 H   0  0  0  0  0  0  0  0  0  0  0  0
    1.8100   -2.3770    0.7190 H   0  0  0  0  0  0  0  0  0  0  0  0
   -3.2350    0.2380   -1.0400 H   0  0  0  0  0  0  0  0  0  0  0  0
    1.2660   -0.9080    2.4890 H   0  0  0  0  0  0  0  0  0  0  0  0
    2.0090    0.4120    1.5550 H   0  0  0  0  0  0  0  0  0  0  0  0
    3.8090   -3.7340    0.5170 H   0  0  0  0  0  0  0  0  0  0  0  0
    4.5510   -2.4130   -0.4170 H   0  0  0  0  0  0  0  0  0  0  0  0
    3.5170    2.1350   -0.4500 H   0  0  0  0  0  0  0  0  0  0  0  0
    6.3460   -2.2380    1.2560 H   0  0  0  0  0  0  0  0  0  0  0  0
    5.6030   -3.5580    2.1910 H   0  0  0  0  0  0  0  0  0  0  0  0
    3.4620   -2.2020    2.4080 H   0  0  0  0  0  0  0  0  0  0  0  0
    4.2060   -0.8810    1.4760 H   0  0  0  0  0  0  0  0  0  0  0  0
    4.3470    3.2990   -5.1890 H   0  0  0  0  0  0  0  0  0  0  0  0
    8.0420   -4.5920    1.7290 H   0  0  0  0  0  0  0  0  0  0  0  0
    8.3780   -3.2230    0.6430 H   0  0  0  0  0  0  0  0  0  0  0  0
    8.4420   -4.8890    0.0200 H   0  0  0  0  0  0  0  0  0  0  0  0
    5.9660   -5.9580    1.3660 H   0  0  0  0  0  0  0  0  0  0  0  0
    6.3880   -6.1570   -0.3520 H   0  0  0  0  0  0  0  0  0  0  0  0
    4.8050   -5.4830    0.1030 H   0  0  0  0  0  0  0  0  0  0  0  0
    5.7380    2.9480   -1.1510 H   0  0  0  0  0  0  0  0  0  0  0  0
    6.1650    3.5270   -3.5180 H   0  0  0  0  0  0  0  0  0  0  0  0
  1  2  2  0  0  0  0
  1  5  1  0  0  0  0
  1 15  1  0  0  0  0
  2  4  1  0  0  0  0
  2  8  1  0  0  0  0
  3  6  1  0  0  0  0
  3  7  2  0  0  0  0
  3 17  1  0  0  0  0
  4  6  1  0  0  0  0
  5  9  2  0  0  0  0
  5 25  1  0  0  0  0
  6 26  1  0  0  0  0
  6 27  1  0  0  0  0
  7 11  1  0  0  0  0
  7 20  1  0  0  0  0
  8 13  2  0  0  0  0
  8 28  1  0  0  0  0
  9 13  1  0  0  0  0
  9 14  1  0  0  0  0
 10 18  1  0  0  0  0
 10 21  1  0  0  0  0
 10 22  1  0  0  0  0
 10 29  1  0  0  0  0
 12 15  1  0  0  0  0
 12 19  1  0  0  0  0
 12 30  1  0  0  0  0
 12 31  1  0  0  0  0
 13 32  1  0  0  0  0
 15 33  1  0  0  0  0
 15 34  1  0  0  0  0
 16 18  1  0  0  0  0
 16 19  1  0  0  0  0
 16 35  1  0  0  0  0
 16 36  1  0  0  0  0
 17 23  2  0  0  0  0
 17 37  1  0  0  0  0
 18 38  1  0  0  0  0
 18 39  1  0  0  0  0
 19 40  1  0  0  0  0
 19 41  1  0  0  0  0
 20 24  2  0  0  0  0
 20 42  1  0  0  0  0
 21 43  1  0  0  0  0
 21 44  1  0  0  0  0
 21 45  1  0  0  0  0
 22 46  1  0  0  0  0
 22 47  1  0  0  0  0
 22 48  1  0  0  0  0
 23 24  1  0  0  0  0
 23 49  1  0  0  0  0
 24 50  1  0  0  0  0
M  CHG  1  10   1
M  CHG  1  12   1
M  END
>  <$CLUSTER>
326

>  <INDEX>
204953

$$$$
Akos LT-1098 X 6746
  MOE2020           3D

 50 51  0  0  0  0  0  0  0  0999 V2000
   -9.6390   -1.2940   -1.1400 C   0  0  0  0  0  0  0  0  0  0  0  0
   -9.1010   -2.1420   -0.1710 C   0  0  0  0  0  0  0  0  0  0  0  0
   -8.9480   -0.1440   -1.5220 C   0  0  0  0  0  0  0  0  0  0  0  0
   -0.9580   -0.4750    0.1740 N   0  0  0  0  0  0  0  0  0  0  0  0
   -7.8730   -1.8360    0.4230 C   0  0  0  0  0  0  0  0  0  0  0  0
   -7.7200    0.1630   -0.9300 C   0  0  0  0  0  0  0  0  0  0  0  0
   -7.1700   -0.6760    0.0540 C   0  0  0  0  0  0  0  0  0  0  0  0
    1.6840    0.7350   -0.0500 O   0  0  0  0  0  0  0  0  0  0  0  0
  -10.0080   -3.7000    0.4190 Br  0  0  0  0  0  0  0  0  0  0  0  0
  -10.8690   -1.6050   -1.7090 O   0  0  0  0  0  0  0  0  0  0  0  0
   -9.5810    0.6740   -2.4720 O   0  0  0  0  0  0  0  0  0  0  0  0
   -4.7320   -0.7230   -0.1390 N   0  0  0  0  0  0  0  0  0  0  0  0
   -2.2670   -0.8060   -0.4050 C   0  0  0  0  0  0  0  0  0  0  0  0
   -0.7540    0.9940    0.2050 C   0  0  0  0  0  0  0  0  0  0  0  0
    0.1360   -1.1000   -0.6080 C   0  0  0  0  0  0  0  0  0  0  0  0
   -5.8400   -0.3360    0.7020 C   0  0  0  0  0  0  0  0  0  0  0  0
    0.6440    1.3500    0.7390 C   0  0  0  0  0  0  0  0  0  0  0  0
    1.5150   -0.6980   -0.0560 C   0  0  0  0  0  0  0  0  0  0  0  0
   -3.4490   -0.3940    0.4570 C   0  0  0  0  0  0  0  0  0  0  0  0
  -10.6870   -2.2170   -2.9970 C   0  0  0  0  0  0  0  0  0  0  0  0
   -8.9160    1.8900   -2.8340 C   0  0  0  0  0  0  0  0  0  0  0  0
  -12.0660   -2.5360   -3.5730 C   0  0  0  0  0  0  0  0  0  0  0  0
   -9.6960    2.6420   -3.8370 C   0  0  0  0  0  0  0  0  0  0  0  0
   -7.4610   -2.4960    1.1720 H   0  0  0  0  0  0  0  0  0  0  0  0
   -7.1890    1.0540   -1.2320 H   0  0  0  0  0  0  0  0  0  0  0  0
   -4.8120   -0.2430   -1.0240 H   0  0  0  0  0  0  0  0  0  0  0  0
   -2.3120   -1.8850   -0.5550 H   0  0  0  0  0  0  0  0  0  0  0  0
   -2.3530   -0.3020   -1.3670 H   0  0  0  0  0  0  0  0  0  0  0  0
   -1.5070    1.4440    0.8520 H   0  0  0  0  0  0  0  0  0  0  0  0
   -0.8600    1.3890   -0.8050 H   0  0  0  0  0  0  0  0  0  0  0  0
    0.0610   -0.7770   -1.6460 H   0  0  0  0  0  0  0  0  0  0  0  0
    0.0350   -2.1840   -0.5570 H   0  0  0  0  0  0  0  0  0  0  0  0
   -5.7640   -0.8620    1.6540 H   0  0  0  0  0  0  0  0  0  0  0  0
   -5.7950    0.7390    0.8760 H   0  0  0  0  0  0  0  0  0  0  0  0
    0.7700    2.4320    0.7090 H   0  0  0  0  0  0  0  0  0  0  0  0
    0.7290    1.0030    1.7690 H   0  0  0  0  0  0  0  0  0  0  0  0
    1.6110   -1.0700    0.9640 H   0  0  0  0  0  0  0  0  0  0  0  0
    2.2900   -1.1440   -0.6800 H   0  0  0  0  0  0  0  0  0  0  0  0
   -3.3720   -0.9040    1.4170 H   0  0  0  0  0  0  0  0  0  0  0  0
   -3.4050    0.6840    0.6130 H   0  0  0  0  0  0  0  0  0  0  0  0
  -10.1100   -3.1360   -2.8910 H   0  0  0  0  0  0  0  0  0  0  0  0
  -10.1600   -1.5310   -3.6600 H   0  0  0  0  0  0  0  0  0  0  0  0
   -7.9370    1.6510   -3.2500 H   0  0  0  0  0  0  0  0  0  0  0  0
   -8.7920    2.5070   -1.9440 H   0  0  0  0  0  0  0  0  0  0  0  0
  -12.5890   -3.2220   -2.9060 H   0  0  0  0  0  0  0  0  0  0  0  0
  -11.9520   -2.9990   -4.5530 H   0  0  0  0  0  0  0  0  0  0  0  0
  -12.6410   -1.6150   -3.6700 H   0  0  0  0  0  0  0  0  0  0  0  0
   -9.8240    2.0310   -4.7300 H   0  0  0  0  0  0  0  0  0  0  0  0
   -9.1660    3.5580   -4.0970 H   0  0  0  0  0  0  0  0  0  0  0  0
  -10.6730    2.8920   -3.4240 H   0  0  0  0  0  0  0  0  0  0  0  0
  1  2  2  0  0  0  0
  1  3  1  0  0  0  0
  1 10  1  0  0  0  0
  2  5  1  0  0  0  0
  2  9  1  0  0  0  0
  3  6  2  0  0  0  0
  3 11  1  0  0  0  0
  4 13  1  0  0  0  0
  4 14  1  0  0  0  0
  4 15  1  0  0  0  0
  5  7  2  0  0  0  0
  5 24  1  0  0  0  0
  6  7  1  0  0  0  0
  6 25  1  0  0  0  0
  7 16  1  0  0  0  0
  8 17  1  0  0  0  0
  8 18  1  0  0  0  0
 10 20  1  0  0  0  0
 11 21  1  0  0  0  0
 12 16  1  0  0  0  0
 12 19  1  0  0  0  0
 12 26  1  0  0  0  0
 13 19  1  0  0  0  0
 13 27  1  0  0  0  0
 13 28  1  0  0  0  0
 14 17  1  0  0  0  0
 14 29  1  0  0  0  0
 14 30  1  0  0  0  0
 15 18  1  0  0  0  0
 15 31  1  0  0  0  0
 15 32  1  0  0  0  0
 16 33  1  0  0  0  0
 16 34  1  0  0  0  0
 17 35  1  0  0  0  0
 17 36  1  0  0  0  0
 18 37  1  0  0  0  0
 18 38  1  0  0  0  0
 19 39  1  0  0  0  0
 19 40  1  0  0  0  0
 20 22  1  0  0  0  0
 20 41  1  0  0  0  0
 20 42  1  0  0  0  0
 21 23  1  0  0  0  0
 21 43  1  0  0  0  0
 21 44  1  0  0  0  0
 22 45  1  0  0  0  0
 22 46  1  0  0  0  0
 22 47  1  0  0  0  0
 23 48  1  0  0  0  0
 23 49  1  0  0  0  0
 23 50  1  0  0  0  0
M  END
>  <$CLUSTER>
327

>  <INDEX>
206506

$$$$
Akos LT-1098 X 6638
  MOE2020           3D

 42 42  0  0  1  0  0  0  0  0999 V2000
   -0.5320    0.9580   -0.3860 C   0  0  0  0  0  0  0  0  0  0  0  0
    0.1990   -0.1140    0.1330 C   0  0  0  0  0  0  0  0  0  0  0  0
   -3.6360    2.1390   -1.0490 N   0  0  0  0  0  0  0  0  0  0  0  0
   -6.3870    3.9120   -2.9100 N   0  0  0  0  0  0  0  0  0  0  0  0
   -1.6820    1.4060    0.2700 C   0  0  0  0  0  0  0  0  0  0  0  0
    1.3380   -0.6460   -0.4110 O   0  0  0  0  0  0  0  0  0  0  0  0
   -8.7910    5.4520   -3.1370 O   0  0  0  0  0  0  0  0  0  0  0  0
   -1.3830   -0.2810    1.9670 C   0  0  0  0  0  0  0  0  0  0  0  0
   -2.4740    2.5840   -0.3000 C   0  0  0  0  0  0  0  0  0  0  0  0
   -8.3270    4.6120   -4.2070 C   0  0  3  0  0  0  0  0  0  0  0  0
   -7.5180    3.4410   -3.6720 C   0  0  0  0  0  0  0  0  0  0  0  0
   -4.3910    3.2640   -1.5760 C   0  0  0  0  0  0  0  0  0  0  0  0
   -5.5960    2.7830   -2.3700 C   0  0  0  0  0  0  0  0  0  0  0  0
   -0.2340   -0.7290    1.3130 C   0  0  0  0  0  0  0  0  0  0  0  0
   -2.1070    0.7880    1.4450 C   0  0  0  0  0  0  0  0  0  0  0  0
    1.8210   -0.0530   -1.6160 C   0  0  0  0  0  0  0  0  0  0  0  0
   -9.5610    4.1380   -4.9940 C   0  0  0  0  0  0  0  0  0  0  0  0
    3.0780   -0.7960   -2.0320 C   0  0  0  0  0  0  0  0  0  0  0  0
   -0.2080    1.4410   -1.2960 H   0  0  0  0  0  0  0  0  0  0  0  0
   -4.2330    1.6000   -0.4390 H   0  0  0  0  0  0  0  0  0  0  0  0
   -6.7200    4.4780   -2.1420 H   0  0  0  0  0  0  0  0  0  0  0  0
   -8.0210    5.7480   -2.6460 H   0  0  0  0  0  0  0  0  0  0  0  0
   -1.7100   -0.7630    2.8770 H   0  0  0  0  0  0  0  0  0  0  0  0
   -2.8060    3.2180    0.5230 H   0  0  0  0  0  0  0  0  0  0  0  0
   -1.8260    3.1580   -0.9620 H   0  0  0  0  0  0  0  0  0  0  0  0
   -7.6590    5.1680   -4.8650 H   0  0  0  0  0  0  0  0  0  0  0  0
   -8.1530    2.8300   -3.0300 H   0  0  0  0  0  0  0  0  0  0  0  0
   -7.1610    2.8400   -4.5080 H   0  0  0  0  0  0  0  0  0  0  0  0
   -3.7460    3.8530   -2.2280 H   0  0  0  0  0  0  0  0  0  0  0  0
   -4.7340    3.8840   -0.7470 H   0  0  0  0  0  0  0  0  0  0  0  0
   -5.2490    2.1670   -3.2000 H   0  0  0  0  0  0  0  0  0  0  0  0
   -6.2330    2.1870   -1.7170 H   0  0  0  0  0  0  0  0  0  0  0  0
    0.3260   -1.5580    1.7210 H   0  0  0  0  0  0  0  0  0  0  0  0
   -2.9960    1.1370    1.9490 H   0  0  0  0  0  0  0  0  0  0  0  0
    2.0520    0.9980   -1.4440 H   0  0  0  0  0  0  0  0  0  0  0  0
    1.0660   -0.1360   -2.3980 H   0  0  0  0  0  0  0  0  0  0  0  0
  -10.2240    3.5830   -4.3300 H   0  0  0  0  0  0  0  0  0  0  0  0
   -9.2440    3.4930   -5.8130 H   0  0  0  0  0  0  0  0  0  0  0  0
  -10.0900    5.0020   -5.3960 H   0  0  0  0  0  0  0  0  0  0  0  0
    3.8280   -0.7090   -1.2460 H   0  0  0  0  0  0  0  0  0  0  0  0
    3.4660   -0.3650   -2.9550 H   0  0  0  0  0  0  0  0  0  0  0  0
    2.8420   -1.8480   -2.1940 H   0  0  0  0  0  0  0  0  0  0  0  0
  1  2  2  0  0  0  0
  1  5  1  0  0  0  0
  1 19  1  0  0  0  0
  2  6  1  0  0  0  0
  2 14  1  0  0  0  0
  3  9  1  0  0  0  0
  3 12  1  0  0  0  0
  3 20  1  0  0  0  0
  4 11  1  0  0  0  0
  4 13  1  0  0  0  0
  4 21  1  0  0  0  0
  5  9  1  0  0  0  0
  5 15  2  0  0  0  0
  6 16  1  0  0  0  0
  7 10  1  0  0  0  0
  7 22  1  0  0  0  0
  8 14  2  0  0  0  0
  8 15  1  0  0  0  0
  8 23  1  0  0  0  0
  9 24  1  0  0  0  0
  9 25  1  0  0  0  0
 10 11  1  0  0  0  0
 10 17  1  0  0  0  0
 10 26  1  0  0  0  0
 11 27  1  0  0  0  0
 11 28  1  0  0  0  0
 12 13  1  0  0  0  0
 12 29  1  0  0  0  0
 12 30  1  0  0  0  0
 13 31  1  0  0  0  0
 13 32  1  0  0  0  0
 14 33  1  0  0  0  0
 15 34  1  0  0  0  0
 16 18  1  0  0  0  0
 16 35  1  0  0  0  0
 16 36  1  0  0  0  0
 17 37  1  0  0  0  0
 17 38  1  0  0  0  0
 17 39  1  0  0  0  0
 18 40  1  0  0  0  0
 18 41  1  0  0  0  0
 18 42  1  0  0  0  0
M  END
>  <$CLUSTER>
328

>  <INDEX>
206453

$$$$
Akos LT-1098 X 3422
  MOE2020           3D

 40 40  0  0  0  0  0  0  0  0999 V2000
    6.4420    1.6340   -0.6770 N   0  0  0  0  0  0  0  0  0  0  0  0
    2.8060    0.7420   -0.2630 N   0  0  0  0  0  0  0  0  0  0  0  0
    0.4920   -0.0660   -0.4010 C   0  0  0  0  0  0  0  0  0  0  0  0
   -2.0340   -0.1850    0.8310 C   0  0  0  0  0  0  0  0  0  0  0  0
   -1.7940    0.7450   -0.1810 C   0  0  0  0  0  0  0  0  0  0  0  0
   -1.0180   -1.0500    1.2380 C   0  0  0  0  0  0  0  0  0  0  0  0
   -0.5380    0.8070   -0.7920 C   0  0  0  0  0  0  0  0  0  0  0  0
    0.2380   -0.9890    0.6290 C   0  0  0  0  0  0  0  0  0  0  0  0
    1.8480   -0.0050   -1.0600 C   0  0  0  0  0  0  0  0  0  0  0  0
    5.0980    1.5830   -0.0560 C   0  0  0  0  0  0  0  0  0  0  0  0
    7.1080    0.3200   -0.6780 C   0  0  0  0  0  0  0  0  0  0  0  0
    7.2900    2.5980    0.0720 C   0  0  0  0  0  0  0  0  0  0  0  0
    4.1160    0.7860   -0.8950 C   0  0  0  0  0  0  0  0  0  0  0  0
   -3.3770   -0.2560    1.4800 C   0  0  0  0  0  0  0  0  0  0  0  0
    8.3730    0.2420   -1.4900 C   0  0  0  0  0  0  0  0  0  0  0  0
    6.8410    4.0570   -0.0620 C   0  0  0  0  0  0  0  0  0  0  0  0
    2.8940    0.3010    0.6410 H   0  0  0  0  0  0  0  0  0  0  0  0
   -2.5790    1.4180   -0.4930 H   0  0  0  0  0  0  0  0  0  0  0  0
   -1.2020   -1.7670    2.0240 H   0  0  0  0  0  0  0  0  0  0  0  0
   -0.3570    1.5320   -1.5720 H   0  0  0  0  0  0  0  0  0  0  0  0
    1.0220   -1.6580    0.9530 H   0  0  0  0  0  0  0  0  0  0  0  0
    2.2190   -1.0210   -1.1960 H   0  0  0  0  0  0  0  0  0  0  0  0
    1.7460    0.4780   -2.0320 H   0  0  0  0  0  0  0  0  0  0  0  0
    4.7220    2.6000    0.0550 H   0  0  0  0  0  0  0  0  0  0  0  0
    5.1810    1.1180    0.9260 H   0  0  0  0  0  0  0  0  0  0  0  0
    6.4060   -0.4130   -1.0760 H   0  0  0  0  0  0  0  0  0  0  0  0
    7.3530    0.0660    0.3530 H   0  0  0  0  0  0  0  0  0  0  0  0
    8.3110    2.5180   -0.3010 H   0  0  0  0  0  0  0  0  0  0  0  0
    7.2660    2.3270    1.1280 H   0  0  0  0  0  0  0  0  0  0  0  0
    4.0230    1.2530   -1.8750 H   0  0  0  0  0  0  0  0  0  0  0  0
    4.4900   -0.2310   -1.0110 H   0  0  0  0  0  0  0  0  0  0  0  0
   -4.0350    0.4900    1.0350 H   0  0  0  0  0  0  0  0  0  0  0  0
   -3.2750   -0.0600    2.5480 H   0  0  0  0  0  0  0  0  0  0  0  0
   -3.8000   -1.2490    1.3310 H   0  0  0  0  0  0  0  0  0  0  0  0
    8.1540    0.4930   -2.5280 H   0  0  0  0  0  0  0  0  0  0  0  0
    8.7770   -0.7690   -1.4380 H   0  0  0  0  0  0  0  0  0  0  0  0
    9.1040    0.9460   -1.0920 H   0  0  0  0  0  0  0  0  0  0  0  0
    6.8580    4.3470   -1.1120 H   0  0  0  0  0  0  0  0  0  0  0  0
    7.5170    4.6990    0.5030 H   0  0  0  0  0  0  0  0  0  0  0  0
    5.8290    4.1630    0.3280 H   0  0  0  0  0  0  0  0  0  0  0  0
  1 10  1  0  0  0  0
  1 11  1  0  0  0  0
  1 12  1  0  0  0  0
  2  9  1  0  0  0  0
  2 13  1  0  0  0  0
  2 17  1  0  0  0  0
  3  7  2  0  0  0  0
  3  8  1  0  0  0  0
  3  9  1  0  0  0  0
  4  5  2  0  0  0  0
  4  6  1  0  0  0  0
  4 14  1  0  0  0  0
  5  7  1  0  0  0  0
  5 18  1  0  0  0  0
  6  8  2  0  0  0  0
  6 19  1  0  0  0  0
  7 20  1  0  0  0  0
  8 21  1  0  0  0  0
  9 22  1  0  0  0  0
  9 23  1  0  0  0  0
 10 13  1  0  0  0  0
 10 24  1  0  0  0  0
 10 25  1  0  0  0  0
 11 15  1  0  0  0  0
 11 26  1  0  0  0  0
 11 27  1  0  0  0  0
 12 16  1  0  0  0  0
 12 28  1  0  0  0  0
 12 29  1  0  0  0  0
 13 30  1  0  0  0  0
 13 31  1  0  0  0  0
 14 32  1  0  0  0  0
 14 33  1  0  0  0  0
 14 34  1  0  0  0  0
 15 35  1  0  0  0  0
 15 36  1  0  0  0  0
 15 37  1  0  0  0  0
 16 38  1  0  0  0  0
 16 39  1  0  0  0  0
 16 40  1  0  0  0  0
M  END
>  <$CLUSTER>
329

>  <INDEX>
205771

$$$$
Akos LT-1125 X 122
  MOE2020           3D

 44 45  0  0  0  0  0  0  0  0999 V2000
    0.2410    0.5730   -0.8620 C   0  0  0  0  0  0  0  0  0  0  0  0
    1.0540   -0.1100   -1.7250 O   0  0  0  0  0  0  0  0  0  0  0  0
   -0.0360    1.8210   -1.3900 C   0  0  0  0  0  0  0  0  0  0  0  0
    1.2880    0.7000   -2.7880 C   0  0  0  0  0  0  0  0  0  0  0  0
    0.6410    1.9000   -2.6310 C   0  0  0  0  0  0  0  0  0  0  0  0
   -0.1400   -0.1240    0.3640 C   0  0  0  0  0  0  0  0  0  0  0  0
    0.3060   -1.4280    0.6350 C   0  0  0  0  0  0  0  0  0  0  0  0
   -0.9690    0.5020    1.3090 C   0  0  0  0  0  0  0  0  0  0  0  0
   -0.8880   -1.4480    2.7370 C   0  0  0  0  0  0  0  0  0  0  0  0
    2.2220   -2.4310   -8.0190 N   0  0  0  0  0  0  0  0  0  0  0  0
   -0.0660   -2.0840    1.8120 C   0  0  0  0  0  0  0  0  0  0  0  0
   -1.3400   -0.1550    2.4860 C   0  0  0  0  0  0  0  0  0  0  0  0
    1.3730   -0.5800   -4.8450 N   0  0  0  0  0  0  0  0  0  0  0  0
   -1.1950   -2.1420    3.8330 F   0  0  0  0  0  0  0  0  0  0  0  0
    2.1590    0.1490   -3.8560 C   0  0  0  0  0  0  0  0  0  0  0  0
    1.3880   -1.8840   -6.9220 C   0  0  0  0  0  0  0  0  0  0  0  0
    2.7720   -1.3760   -8.8860 C   0  0  0  0  0  0  0  0  0  0  0  0
    1.3940   -3.3460   -8.8510 C   0  0  0  0  0  0  0  0  0  0  0  0
    2.2210   -1.1190   -5.9150 C   0  0  0  0  0  0  0  0  0  0  0  0
    3.8060   -1.8340   -9.8790 C   0  0  0  0  0  0  0  0  0  0  0  0
    0.9660   -4.6280   -8.1280 C   0  0  0  0  0  0  0  0  0  0  0  0
   -0.6510    2.5880   -0.9420 H   0  0  0  0  0  0  0  0  0  0  0  0
    0.6470    2.7350   -3.3150 H   0  0  0  0  0  0  0  0  0  0  0  0
    0.9450   -1.9310   -0.0760 H   0  0  0  0  0  0  0  0  0  0  0  0
   -1.3250    1.5050    1.1240 H   0  0  0  0  0  0  0  0  0  0  0  0
    0.2860   -3.0870    2.0040 H   0  0  0  0  0  0  0  0  0  0  0  0
   -1.9780    0.3410    3.2020 H   0  0  0  0  0  0  0  0  0  0  0  0
    0.6920    0.0470   -5.2500 H   0  0  0  0  0  0  0  0  0  0  0  0
    2.8870   -0.5280   -3.4090 H   0  0  0  0  0  0  0  0  0  0  0  0
    2.6810    0.9690   -4.3490 H   0  0  0  0  0  0  0  0  0  0  0  0
    0.8880   -2.7080   -6.4140 H   0  0  0  0  0  0  0  0  0  0  0  0
    0.6420   -1.2120   -7.3460 H   0  0  0  0  0  0  0  0  0  0  0  0
    3.2300   -0.6200   -8.2480 H   0  0  0  0  0  0  0  0  0  0  0  0
    1.9460   -0.9310   -9.4410 H   0  0  0  0  0  0  0  0  0  0  0  0
    1.9720   -3.6260   -9.7320 H   0  0  0  0  0  0  0  0  0  0  0  0
    0.4960   -2.8110   -9.1600 H   0  0  0  0  0  0  0  0  0  0  0  0
    2.9630   -1.7890   -5.4810 H   0  0  0  0  0  0  0  0  0  0  0  0
    2.7270   -0.2960   -6.4200 H   0  0  0  0  0  0  0  0  0  0  0  0
    4.6450   -2.2840   -9.3480 H   0  0  0  0  0  0  0  0  0  0  0  0
    4.1580   -0.9800  -10.4570 H   0  0  0  0  0  0  0  0  0  0  0  0
    3.3640   -2.5700  -10.5500 H   0  0  0  0  0  0  0  0  0  0  0  0
    1.8510   -5.1790   -7.8100 H   0  0  0  0  0  0  0  0  0  0  0  0
    0.3760   -5.2470   -8.8040 H   0  0  0  0  0  0  0  0  0  0  0  0
    0.3660   -4.3700   -7.2550 H   0  0  0  0  0  0  0  0  0  0  0  0
  1  2  1  0  0  0  0
  1  3  2  0  0  0  0
  1  6  1  0  0  0  0
  2  4  1  0  0  0  0
  3  5  1  0  0  0  0
  3 22  1  0  0  0  0
  4  5  2  0  0  0  0
  4 15  1  0  0  0  0
  5 23  1  0  0  0  0
  6  7  2  0  0  0  0
  6  8  1  0  0  0  0
  7 11  1  0  0  0  0
  7 24  1  0  0  0  0
  8 12  2  0  0  0  0
  8 25  1  0  0  0  0
  9 11  2  0  0  0  0
  9 12  1  0  0  0  0
  9 14  1  0  0  0  0
 10 16  1  0  0  0  0
 10 17  1  0  0  0  0
 10 18  1  0  0  0  0
 11 26  1  0  0  0  0
 12 27  1  0  0  0  0
 13 15  1  0  0  0  0
 13 19  1  0  0  0  0
 13 28  1  0  0  0  0
 15 29  1  0  0  0  0
 15 30  1  0  0  0  0
 16 19  1  0  0  0  0
 16 31  1  0  0  0  0
 16 32  1  0  0  0  0
 17 20  1  0  0  0  0
 17 33  1  0  0  0  0
 17 34  1  0  0  0  0
 18 21  1  0  0  0  0
 18 35  1  0  0  0  0
 18 36  1  0  0  0  0
 19 37  1  0  0  0  0
 19 38  1  0  0  0  0
 20 39  1  0  0  0  0
 20 40  1  0  0  0  0
 20 41  1  0  0  0  0
 21 42  1  0  0  0  0
 21 43  1  0  0  0  0
 21 44  1  0  0  0  0
M  END
>  <$CLUSTER>
330

>  <INDEX>
207041

$$$$
FCHC 33321
  MOE2020           3D

 19 19  0  0  0  0  0  0  0  0999 V2000
   -0.7830    0.3120   -0.4620 N   0  0  0  0  0  0  0  0  0  0  0  0
    0.5600    0.4070   -0.8170 C   0  0  0  0  0  0  0  0  0  0  0  0
    0.9600    0.9060   -1.8730 O   0  0  0  0  0  0  0  0  0  0  0  0
   -1.8090    0.8410   -1.3510 C   0  0  0  0  0  0  0  0  0  0  0  0
   -1.2660   -0.3540    0.7470 C   0  0  0  0  0  0  0  0  0  0  0  0
    1.5810   -0.0680    0.2000 C   0  0  0  0  0  0  0  0  0  0  0  0
   -0.2180   -0.5140    1.8320 C   0  0  0  0  0  0  0  0  0  0  0  0
    1.0540   -1.0620    1.2160 C   0  0  0  0  0  0  0  0  0  0  0  0
   -1.3360    1.3120   -2.2130 H   0  0  0  0  0  0  0  0  0  0  0  0
   -2.4070    1.5790   -0.8170 H   0  0  0  0  0  0  0  0  0  0  0  0
   -2.4520    0.0280   -1.6890 H   0  0  0  0  0  0  0  0  0  0  0  0
   -1.6250   -1.3450    0.4700 H   0  0  0  0  0  0  0  0  0  0  0  0
   -2.0910    0.2310    1.1530 H   0  0  0  0  0  0  0  0  0  0  0  0
    1.9520    0.8030    0.7400 H   0  0  0  0  0  0  0  0  0  0  0  0
    2.4030   -0.5390   -0.3400 H   0  0  0  0  0  0  0  0  0  0  0  0
   -0.5820   -1.2050    2.5920 H   0  0  0  0  0  0  0  0  0  0  0  0
   -0.0150    0.4550    2.2890 H   0  0  0  0  0  0  0  0  0  0  0  0
    1.8000   -1.2170    1.9960 H   0  0  0  0  0  0  0  0  0  0  0  0
    0.8410   -2.0100    0.7230 H   0  0  0  0  0  0  0  0  0  0  0  0
  1  2  1  0  0  0  0
  1  4  1  0  0  0  0
  1  5  1  0  0  0  0
  2  3  2  0  0  0  0
  2  6  1  0  0  0  0
  4  9  1  0  0  0  0
  4 10  1  0  0  0  0
  4 11  1  0  0  0  0
  5  7  1  0  0  0  0
  5 12  1  0  0  0  0
  5 13  1  0  0  0  0
  6  8  1  0  0  0  0
  6 14  1  0  0  0  0
  6 15  1  0  0  0  0
  7  8  1  0  0  0  0
  7 16  1  0  0  0  0
  7 17  1  0  0  0  0
  8 18  1  0  0  0  0
  8 19  1  0  0  0  0
M  END
>  <$CLUSTER>
331

>  <INDEX>
234215

$$$$
Akos OWH-S11-1500
  MOE2020           3D

 48 50  0  0  1  0  0  0  0  0999 V2000
   -1.3010   -0.3250   -1.5160 C   0  0  0  0  0  0  0  0  0  0  0  0
   -2.5900   -0.7920    0.6250 C   0  0  0  0  0  0  0  0  0  0  0  0
   -2.5640   -0.7560   -0.7320 C   0  0  0  0  0  0  0  0  0  0  0  0
   -1.4210   -0.4810    1.4620 C   0  0  0  0  0  0  0  0  0  0  0  0
   -0.0690   -0.3570    0.7610 C   0  0  1  0  0  0  0  0  0  0  0  0
   -0.2410    0.3880   -0.5950 C   0  0  1  0  0  0  0  0  0  0  0  0
    0.9890   -0.2690    3.0230 N   0  3  3  0  0  0  0  0  0  0  0  0
    0.9810    0.3590    1.6470 C   0  0  0  0  0  0  0  0  0  0  0  0
   -1.5130   -0.3130    2.7980 C   0  0  0  0  0  0  0  0  0  0  0  0
   -0.7520   -1.5650   -2.1260 C   0  0  0  0  0  0  0  0  0  0  0  0
   -1.7060    0.6450   -2.5720 C   0  0  0  0  0  0  0  0  0  0  0  0
   -3.8000   -1.2080    1.2810 C   0  0  0  0  0  0  0  0  0  0  0  0
   -0.3330   -2.5380   -2.6010 N   0  0  0  0  0  0  0  0  0  0  0  0
   -2.0190    1.4030   -3.3940 N   0  0  0  0  0  0  0  0  0  0  0  0
   -4.7790   -1.5470    1.8050 N   0  0  0  0  0  0  0  0  0  0  0  0
   -0.3440   -0.0470    3.6950 C   0  0  0  0  0  0  0  0  0  0  0  0
    1.0790    0.6960   -1.3160 C   0  0  0  0  0  0  0  0  0  0  0  0
   -3.6490   -1.1190   -1.5110 N   0  0  0  0  0  0  0  0  0  0  0  0
    2.2290    0.0780    3.8430 C   0  0  0  0  0  0  0  0  0  0  0  0
    2.0860   -0.2700   -1.4910 C   0  0  0  0  0  0  0  0  0  0  0  0
    1.3000    1.9890   -1.8240 C   0  0  0  0  0  0  0  0  0  0  0  0
    3.4640    1.3320   -2.6440 C   0  0  0  0  0  0  0  0  0  0  0  0
    3.2740    0.0460   -2.1530 C   0  0  0  0  0  0  0  0  0  0  0  0
    2.4870    2.3070   -2.4860 C   0  0  0  0  0  0  0  0  0  0  0  0
    4.6050    1.6350   -3.2780 F   0  0  0  0  0  0  0  0  0  0  0  0
    2.2680    1.5490    4.2430 C   0  0  0  0  0  0  0  0  0  0  0  0
    2.3210   -0.8430    5.0570 C   0  0  0  0  0  0  0  0  0  0  0  0
    0.3030   -1.3640    0.5740 H   0  0  0  0  0  0  0  0  0  0  0  0
   -0.6410    1.3710   -0.3480 H   0  0  0  0  0  0  0  0  0  0  0  0
    1.0860   -1.2700    2.9310 H   0  0  0  0  0  0  0  0  0  0  0  0
    0.7260    1.4160    1.7310 H   0  0  0  0  0  0  0  0  0  0  0  0
    1.9680    0.2580    1.1950 H   0  0  0  0  0  0  0  0  0  0  0  0
   -2.4920   -0.3740    3.2490 H   0  0  0  0  0  0  0  0  0  0  0  0
   -0.4110   -0.7110    4.5570 H   0  0  0  0  0  0  0  0  0  0  0  0
   -0.3940    0.9890    4.0300 H   0  0  0  0  0  0  0  0  0  0  0  0
   -4.5050   -1.4260   -1.0720 H   0  0  0  0  0  0  0  0  0  0  0  0
   -3.5840   -1.0760   -2.5180 H   0  0  0  0  0  0  0  0  0  0  0  0
    3.1050   -0.0840    3.2150 H   0  0  0  0  0  0  0  0  0  0  0  0
    1.9380   -1.2690   -1.1080 H   0  0  0  0  0  0  0  0  0  0  0  0
    0.5400    2.7470   -1.7000 H   0  0  0  0  0  0  0  0  0  0  0  0
    4.0400   -0.7040   -2.2830 H   0  0  0  0  0  0  0  0  0  0  0  0
    2.6450    3.3030   -2.8720 H   0  0  0  0  0  0  0  0  0  0  0  0
    1.4110    1.7760    4.8770 H   0  0  0  0  0  0  0  0  0  0  0  0
    2.2320    2.1700    3.3480 H   0  0  0  0  0  0  0  0  0  0  0  0
    3.1890    1.7520    4.7900 H   0  0  0  0  0  0  0  0  0  0  0  0
    1.4500   -0.6920    5.6950 H   0  0  0  0  0  0  0  0  0  0  0  0
    3.2270   -0.6140    5.6190 H   0  0  0  0  0  0  0  0  0  0  0  0
    2.3520   -1.8810    4.7240 H   0  0  0  0  0  0  0  0  0  0  0  0
  1  3  1  0  0  0  0
  1  6  1  0  0  0  0
  1 10  1  0  0  0  0
  1 11  1  0  0  0  0
  2  3  2  0  0  0  0
  2  4  1  0  0  0  0
  2 12  1  0  0  0  0
  3 18  1  0  0  0  0
  4  5  1  0  0  0  0
  4  9  2  0  0  0  0
  5  6  1  0  0  0  0
  5  8  1  0  0  0  0
  5 28  1  0  0  0  0
  6 17  1  0  0  0  0
  6 29  1  0  0  0  0
  7  8  1  0  0  0  0
  7 16  1  0  0  0  0
  7 19  1  0  0  0  0
  7 30  1  0  0  0  0
  8 31  1  0  0  0  0
  8 32  1  0  0  0  0
  9 16  1  0  0  0  0
  9 33  1  0  0  0  0
 10 13  3  0  0  0  0
 11 14  3  0  0  0  0
 12 15  3  0  0  0  0
 16 34  1  0  0  0  0
 16 35  1  0  0  0  0
 17 20  2  0  0  0  0
 17 21  1  0  0  0  0
 18 36  1  0  0  0  0
 18 37  1  0  0  0  0
 19 26  1  0  0  0  0
 19 27  1  0  0  0  0
 19 38  1  0  0  0  0
 20 23  1  0  0  0  0
 20 39  1  0  0  0  0
 21 24  2  0  0  0  0
 21 40  1  0  0  0  0
 22 23  2  0  0  0  0
 22 24  1  0  0  0  0
 22 25  1  0  0  0  0
 23 41  1  0  0  0  0
 24 42  1  0  0  0  0
 26 43  1  0  0  0  0
 26 44  1  0  0  0  0
 26 45  1  0  0  0  0
 27 46  1  0  0  0  0
 27 47  1  0  0  0  0
 27 48  1  0  0  0  0
M  CHG  1   7   1
M  END
>  <$CLUSTER>
332

>  <INDEX>
211569

$$$$
ASDI PPD41459
  MOE2020           3D

 36 37  0  0  0  0  0  0  0  0999 V2000
   -0.2790    0.1730    0.8830 C   0  0  0  0  0  0  0  0  0  0  0  0
    0.0350   -0.2130   -0.3680 C   0  0  0  0  0  0  0  0  0  0  0  0
    0.5140   -1.5000   -0.7010 N   0  0  0  0  0  0  0  0  0  0  0  0
   -0.7180    1.5480    1.2110 C   0  0  0  0  0  0  0  0  0  0  0  0
    0.5350   -2.6260    0.2470 C   0  0  0  0  0  0  0  0  0  0  0  0
   -0.9790    1.8430    2.3740 O   0  0  0  0  0  0  0  0  0  0  0  0
    1.8540   -2.6700    1.0040 C   0  0  0  0  0  0  0  0  0  0  0  0
   -0.1310    0.7750   -1.5160 C   0  0  0  0  0  0  0  0  0  0  0  0
    1.8950   -3.8340    1.9790 C   0  0  0  0  0  0  0  0  0  0  0  0
   -1.0990    1.9160   -1.2110 C   0  0  0  0  0  0  0  0  0  0  0  0
   -0.7610    2.5760    0.1100 C   0  0  0  0  0  0  0  0  0  0  0  0
    1.0300   -1.8240   -2.0350 C   0  0  0  0  0  0  0  0  0  0  0  0
    2.3740   -5.0850    1.5700 C   0  0  0  0  0  0  0  0  0  0  0  0
    1.4350   -3.6760    3.2910 C   0  0  0  0  0  0  0  0  0  0  0  0
    2.4000   -6.1570    2.4630 C   0  0  0  0  0  0  0  0  0  0  0  0
    1.4620   -4.7490    4.1830 C   0  0  0  0  0  0  0  0  0  0  0  0
    1.9450   -5.9870    3.7690 C   0  0  0  0  0  0  0  0  0  0  0  0
   -0.2080   -0.5510    1.6810 H   0  0  0  0  0  0  0  0  0  0  0  0
    0.4070   -3.5580   -0.3030 H   0  0  0  0  0  0  0  0  0  0  0  0
   -0.2820   -2.5090    0.9590 H   0  0  0  0  0  0  0  0  0  0  0  0
    1.9760   -1.7390    1.5580 H   0  0  0  0  0  0  0  0  0  0  0  0
    2.6700   -2.7770    0.2890 H   0  0  0  0  0  0  0  0  0  0  0  0
   -0.5020    0.2330   -2.3860 H   0  0  0  0  0  0  0  0  0  0  0  0
    0.8450    1.2040   -1.7440 H   0  0  0  0  0  0  0  0  0  0  0  0
   -2.1130    1.5200   -1.1620 H   0  0  0  0  0  0  0  0  0  0  0  0
   -1.0370    2.6580   -2.0070 H   0  0  0  0  0  0  0  0  0  0  0  0
    0.2120    3.0600    0.0320 H   0  0  0  0  0  0  0  0  0  0  0  0
   -1.5200    3.3220    0.3440 H   0  0  0  0  0  0  0  0  0  0  0  0
    0.9780   -0.9390   -2.6690 H   0  0  0  0  0  0  0  0  0  0  0  0
    0.4290   -2.6210   -2.4730 H   0  0  0  0  0  0  0  0  0  0  0  0
    2.0660   -2.1530   -1.9540 H   0  0  0  0  0  0  0  0  0  0  0  0
    2.7250   -5.2210    0.5580 H   0  0  0  0  0  0  0  0  0  0  0  0
    1.0570   -2.7180    3.6150 H   0  0  0  0  0  0  0  0  0  0  0  0
    2.7730   -7.1180    2.1420 H   0  0  0  0  0  0  0  0  0  0  0  0
    1.1080   -4.6190    5.1950 H   0  0  0  0  0  0  0  0  0  0  0  0
    1.9670   -6.8160    4.4600 H   0  0  0  0  0  0  0  0  0  0  0  0
  1  2  2  0  0  0  0
  1  4  1  0  0  0  0
  1 18  1  0  0  0  0
  2  3  1  0  0  0  0
  2  8  1  0  0  0  0
  3  5  1  0  0  0  0
  3 12  1  0  0  0  0
  4  6  2  0  0  0  0
  4 11  1  0  0  0  0
  5  7  1  0  0  0  0
  5 19  1  0  0  0  0
  5 20  1  0  0  0  0
  7  9  1  0  0  0  0
  7 21  1  0  0  0  0
  7 22  1  0  0  0  0
  8 10  1  0  0  0  0
  8 23  1  0  0  0  0
  8 24  1  0  0  0  0
  9 13  2  0  0  0  0
  9 14  1  0  0  0  0
 10 11  1  0  0  0  0
 10 25  1  0  0  0  0
 10 26  1  0  0  0  0
 11 27  1  0  0  0  0
 11 28  1  0  0  0  0
 12 29  1  0  0  0  0
 12 30  1  0  0  0  0
 12 31  1  0  0  0  0
 13 15  1  0  0  0  0
 13 32  1  0  0  0  0
 14 16  2  0  0  0  0
 14 33  1  0  0  0  0
 15 17  2  0  0  0  0
 15 34  1  0  0  0  0
 16 17  1  0  0  0  0
 16 35  1  0  0  0  0
 17 36  1  0  0  0  0
M  END
>  <$CLUSTER>
333

>  <INDEX>
212405

$$$$
Maybridge NRB 04458
  MOE2020           3D

 25 26  0  0  1  0  0  0  0  0999 V2000
   -0.8670   -0.9120   -0.4190 C   0  0  3  0  0  0  0  0  0  0  0  0
    0.5720   -0.7440   -0.0860 N   0  3  0  0  0  0  0  0  0  0  0  0
    0.7330    0.2940    0.9780 C   0  0  1  0  0  0  0  0  0  0  0  0
   -1.0200   -1.5270   -1.8110 C   0  0  0  0  0  0  0  0  0  0  0  0
   -1.5400    0.7800   -0.3310 S   0  0  0  0  0  0  0  0  0  0  0  0
    2.2160    0.6170    1.1610 C   0  0  0  0  0  0  0  0  0  0  0  0
   -0.0950    1.4930    0.5080 C   0  0  0  0  0  0  0  0  0  0  0  0
   -2.1670   -2.3450   -2.0930 C   0  0  0  0  0  0  0  0  0  0  0  0
    2.5320    1.7630    1.7210 O   0  0  0  0  0  0  0  0  0  0  0  0
    3.0660   -0.2770    0.8520 O   0  5  0  0  0  0  0  0  0  0  0  0
   -3.5020   -2.7510   -0.7980 Br  0  0  0  0  0  0  0  0  0  0  0  0
   -0.1610   -1.2570   -2.8640 C   0  0  0  0  0  0  0  0  0  0  0  0
   -2.3480   -2.8980   -3.3690 C   0  0  0  0  0  0  0  0  0  0  0  0
   -0.3440   -1.8080   -4.1340 C   0  0  0  0  0  0  0  0  0  0  0  0
   -1.4350   -2.6310   -4.3850 C   0  0  0  0  0  0  0  0  0  0  0  0
   -1.3940   -1.5870    0.2550 H   0  0  0  0  0  0  0  0  0  0  0  0
    0.9430   -1.6230    0.2450 H   0  0  0  0  0  0  0  0  0  0  0  0
    1.0750   -0.4560   -0.9130 H   0  0  0  0  0  0  0  0  0  0  0  0
    0.3830   -0.0330    1.9570 H   0  0  0  0  0  0  0  0  0  0  0  0
    0.4820    2.1080   -0.1820 H   0  0  0  0  0  0  0  0  0  0  0  0
   -0.4080    2.0980    1.3590 H   0  0  0  0  0  0  0  0  0  0  0  0
    0.6780   -0.5980   -2.6970 H   0  0  0  0  0  0  0  0  0  0  0  0
   -3.1990   -3.5340   -3.5640 H   0  0  0  0  0  0  0  0  0  0  0  0
    0.3630   -1.5940   -4.9220 H   0  0  0  0  0  0  0  0  0  0  0  0
   -1.5740   -3.0620   -5.3650 H   0  0  0  0  0  0  0  0  0  0  0  0
  1  2  1  0  0  0  0
  1  4  1  0  0  0  0
  1  5  1  0  0  0  0
  1 16  1  0  0  0  0
  2  3  1  0  0  0  0
  2 17  1  0  0  0  0
  2 18  1  0  0  0  0
  3  6  1  0  0  0  0
  3  7  1  0  0  0  0
  3 19  1  0  0  0  0
  4  8  1  0  0  0  0
  4 12  2  0  0  0  0
  5  7  1  0  0  0  0
  6  9  2  0  0  0  0
  6 10  1  0  0  0  0
  7 20  1  0  0  0  0
  7 21  1  0  0  0  0
  8 11  1  0  0  0  0
  8 13  2  0  0  0  0
 12 14  1  0  0  0  0
 12 22  1  0  0  0  0
 13 15  1  0  0  0  0
 13 23  1  0  0  0  0
 14 15  2  0  0  0  0
 14 24  1  0  0  0  0
 15 25  1  0  0  0  0
M  CHG  1   2   1
M  CHG  1  10  -1
M  END
>  <$CLUSTER>
334

>  <INDEX>
562083

$$$$
InterBioScreen STOCK2S-01673
  MOE2020           3D

 30 32  0  0  0  0  0  0  0  0999 V2000
   -1.7640   -0.8160    2.5960 N   0  0  0  0  0  0  0  0  0  0  0  0
   -0.4640   -0.3620    0.5610 C   0  0  0  0  0  0  0  0  0  0  0  0
   -1.7690   -0.7290    1.2090 C   0  0  0  0  0  0  0  0  0  0  0  0
   -0.6630   -0.6200    3.4220 C   0  0  0  0  0  0  0  0  0  0  0  0
    0.5810   -0.2070    1.3870 C   0  0  0  0  0  0  0  0  0  0  0  0
    0.5050   -0.3210    2.7480 N   0  0  0  0  0  0  0  0  0  0  0  0
   -0.5020   -0.2940   -0.8160 N   0  0  0  0  0  0  0  0  0  0  0  0
    0.3770    0.3020   -1.7400 C   0  0  0  0  0  0  0  0  0  0  0  0
   -2.7780   -0.9330    0.5370 O   0  0  0  0  0  0  0  0  0  0  0  0
   -0.7250   -0.7120    4.6480 O   0  0  0  0  0  0  0  0  0  0  0  0
    1.2530    0.3420   -4.0220 C   0  0  0  0  0  0  0  0  0  0  0  0
    0.3830   -0.1810   -3.0620 C   0  0  0  0  0  0  0  0  0  0  0  0
    2.1380    1.3580   -3.6770 C   0  0  0  0  0  0  0  0  0  0  0  0
    2.1490    1.8500   -2.3750 C   0  0  0  0  0  0  0  0  0  0  0  0
    1.2780    1.3250   -1.4150 C   0  0  0  0  0  0  0  0  0  0  0  0
    1.2390   -0.1600   -5.3460 C   0  0  0  0  0  0  0  0  0  0  0  0
    3.0130    1.8820   -4.6490 C   0  0  0  0  0  0  0  0  0  0  0  0
    2.1100    0.3660   -6.3000 C   0  0  0  0  0  0  0  0  0  0  0  0
    2.9950    1.3840   -5.9530 C   0  0  0  0  0  0  0  0  0  0  0  0
   -2.6400   -1.0420    3.0450 H   0  0  0  0  0  0  0  0  0  0  0  0
    1.5420    0.0220    0.9510 H   0  0  0  0  0  0  0  0  0  0  0  0
    1.3470   -0.1790    3.2880 H   0  0  0  0  0  0  0  0  0  0  0  0
   -1.2990   -0.7520   -1.2340 H   0  0  0  0  0  0  0  0  0  0  0  0
   -0.2980   -0.9720   -3.3400 H   0  0  0  0  0  0  0  0  0  0  0  0
    2.8330    2.6410   -2.1050 H   0  0  0  0  0  0  0  0  0  0  0  0
    1.3000    1.7140   -0.4080 H   0  0  0  0  0  0  0  0  0  0  0  0
    0.5540   -0.9500   -5.6170 H   0  0  0  0  0  0  0  0  0  0  0  0
    3.7000    2.6720   -4.3840 H   0  0  0  0  0  0  0  0  0  0  0  0
    2.0980   -0.0170   -7.3100 H   0  0  0  0  0  0  0  0  0  0  0  0
    3.6680    1.7890   -6.6940 H   0  0  0  0  0  0  0  0  0  0  0  0
  1  3  1  0  0  0  0
  1  4  1  0  0  0  0
  1 20  1  0  0  0  0
  2  3  1  0  0  0  0
  2  5  2  0  0  0  0
  2  7  1  0  0  0  0
  3  9  2  0  0  0  0
  4  6  1  0  0  0  0
  4 10  2  0  0  0  0
  5  6  1  0  0  0  0
  5 21  1  0  0  0  0
  6 22  1  0  0  0  0
  7  8  1  0  0  0  0
  7 23  1  0  0  0  0
  8 12  2  0  0  0  0
  8 15  1  0  0  0  0
 11 12  1  0  0  0  0
 11 13  2  0  0  0  0
 11 16  1  0  0  0  0
 12 24  1  0  0  0  0
 13 14  1  0  0  0  0
 13 17  1  0  0  0  0
 14 15  2  0  0  0  0
 14 25  1  0  0  0  0
 15 26  1  0  0  0  0
 16 18  2  0  0  0  0
 16 27  1  0  0  0  0
 17 19  2  0  0  0  0
 17 28  1  0  0  0  0
 18 19  1  0  0  0  0
 18 29  1  0  0  0  0
 19 30  1  0  0  0  0
M  END
>  <$CLUSTER>
335

>  <INDEX>
334743

$$$$
Lithuania 1067744
  MOE2020           3D

 47 50  0  0  1  0  0  0  0  0999 V2000
    0.4350    0.9370   -0.2510 N   0  0  0  0  0  0  0  0  0  0  0  0
    1.1720    1.3730    0.8710 C   0  0  0  0  0  0  0  0  0  0  0  0
    0.5700   -0.4550   -0.7430 C   0  0  3  0  0  0  0  0  0  0  0  0
    1.9180   -0.9650   -0.5710 N   0  0  0  0  0  0  0  0  0  0  0  0
    2.3330    0.5400    1.2730 C   0  0  0  0  0  0  0  0  0  0  0  0
    2.6950   -0.5590    0.4920 C   0  0  0  0  0  0  0  0  0  0  0  0
   -0.4120   -1.4480   -0.1340 C   0  0  0  0  0  0  0  0  0  0  0  0
   -0.5010    1.8210   -0.9210 C   0  0  0  0  0  0  0  0  0  0  0  0
   -0.8230   -2.5520   -0.9020 C   0  0  0  0  0  0  0  0  0  0  0  0
    0.9370    2.3730    1.5430 O   0  0  0  0  0  0  0  0  0  0  0  0
   -1.7060   -3.5000   -0.3830 C   0  0  0  0  0  0  0  0  0  0  0  0
   -2.1870   -3.3640    0.9170 C   0  0  0  0  0  0  0  0  0  0  0  0
   -0.8980   -1.3340    1.1780 C   0  0  0  0  0  0  0  0  0  0  0  0
   -1.7820   -2.2840    1.6960 C   0  0  0  0  0  0  0  0  0  0  0  0
   -1.5470    1.3220   -1.7180 C   0  0  0  0  0  0  0  0  0  0  0  0
   -0.3800    3.2190   -0.8290 C   0  0  0  0  0  0  0  0  0  0  0  0
   -2.3120    3.5550   -2.2460 C   0  0  0  0  0  0  0  0  0  0  0  0
    3.0990    0.9070    2.3880 C   0  0  0  0  0  0  0  0  0  0  0  0
   -2.1550   -4.6000   -1.0850 O   0  0  0  0  0  0  0  0  0  0  0  0
   -1.2770    4.0750   -1.4800 C   0  0  0  0  0  0  0  0  0  0  0  0
   -2.4450    2.1770   -2.3670 C   0  0  0  0  0  0  0  0  0  0  0  0
   -3.1250    4.4360   -2.8250 F   0  0  0  0  0  0  0  0  0  0  0  0
   -3.0490   -4.3470    1.3470 O   0  0  0  0  0  0  0  0  0  0  0  0
    3.8420   -1.2840    0.8450 C   0  0  0  0  0  0  0  0  0  0  0  0
   -1.6860   -4.7680   -2.4180 C   0  0  0  0  0  0  0  0  0  0  0  0
   -3.5580   -4.2410    2.6710 C   0  0  0  0  0  0  0  0  0  0  0  0
    4.2330    0.1720    2.7280 C   0  0  0  0  0  0  0  0  0  0  0  0
    4.6070   -0.9220    1.9550 C   0  0  0  0  0  0  0  0  0  0  0  0
    0.3290   -0.3750   -1.8030 H   0  0  0  0  0  0  0  0  0  0  0  0
    2.2910   -1.6250   -1.2380 H   0  0  0  0  0  0  0  0  0  0  0  0
   -0.4500   -2.6680   -1.9090 H   0  0  0  0  0  0  0  0  0  0  0  0
   -0.5850   -0.5030    1.7930 H   0  0  0  0  0  0  0  0  0  0  0  0
   -2.1530   -2.1800    2.7050 H   0  0  0  0  0  0  0  0  0  0  0  0
   -1.6600    0.2540   -1.8320 H   0  0  0  0  0  0  0  0  0  0  0  0
    0.4230    3.6420   -0.2430 H   0  0  0  0  0  0  0  0  0  0  0  0
    2.8100    1.7600    2.9840 H   0  0  0  0  0  0  0  0  0  0  0  0
   -1.1630    5.1450   -1.3860 H   0  0  0  0  0  0  0  0  0  0  0  0
   -3.2450    1.7640   -2.9640 H   0  0  0  0  0  0  0  0  0  0  0  0
    4.1380   -2.1350    0.2490 H   0  0  0  0  0  0  0  0  0  0  0  0
   -2.1210   -5.6720   -2.8450 H   0  0  0  0  0  0  0  0  0  0  0  0
   -0.5990   -4.8550   -2.4130 H   0  0  0  0  0  0  0  0  0  0  0  0
   -1.9790   -3.9060   -3.0170 H   0  0  0  0  0  0  0  0  0  0  0  0
   -4.2220   -5.0810    2.8730 H   0  0  0  0  0  0  0  0  0  0  0  0
   -4.1110   -3.3080    2.7740 H   0  0  0  0  0  0  0  0  0  0  0  0
   -2.7310   -4.2530    3.3800 H   0  0  0  0  0  0  0  0  0  0  0  0
    4.8200    0.4510    3.5900 H   0  0  0  0  0  0  0  0  0  0  0  0
    5.4880   -1.4910    2.2130 H   0  0  0  0  0  0  0  0  0  0  0  0
  1  2  1  0  0  0  0
  1  3  1  0  0  0  0
  1  8  1  0  0  0  0
  2  5  1  0  0  0  0
  2 10  2  0  0  0  0
  3  4  1  0  0  0  0
  3  7  1  0  0  0  0
  3 29  1  0  0  0  0
  4  6  1  0  0  0  0
  4 30  1  0  0  0  0
  5  6  2  0  0  0  0
  5 18  1  0  0  0  0
  6 24  1  0  0  0  0
  7  9  1  0  0  0  0
  7 13  2  0  0  0  0
  8 15  1  0  0  0  0
  8 16  2  0  0  0  0
  9 11  2  0  0  0  0
  9 31  1  0  0  0  0
 11 12  1  0  0  0  0
 11 19  1  0  0  0  0
 12 14  2  0  0  0  0
 12 23  1  0  0  0  0
 13 14  1  0  0  0  0
 13 32  1  0  0  0  0
 14 33  1  0  0  0  0
 15 21  2  0  0  0  0
 15 34  1  0  0  0  0
 16 20  1  0  0  0  0
 16 35  1  0  0  0  0
 17 20  2  0  0  0  0
 17 21  1  0  0  0  0
 17 22  1  0  0  0  0
 18 27  2  0  0  0  0
 18 36  1  0  0  0  0
 19 25  1  0  0  0  0
 20 37  1  0  0  0  0
 21 38  1  0  0  0  0
 23 26  1  0  0  0  0
 24 28  2  0  0  0  0
 24 39  1  0  0  0  0
 25 40  1  0  0  0  0
 25 41  1  0  0  0  0
 25 42  1  0  0  0  0
 26 43  1  0  0  0  0
 26 44  1  0  0  0  0
 26 45  1  0  0  0  0
 27 28  1  0  0  0  0
 27 46  1  0  0  0  0
 28 47  1  0  0  0  0
M  END
>  <$CLUSTER>
336

>  <INDEX>
222901

$$$$
EMC Microcollections 011A0558
  MOE2020           3D

 40 42  0  0  0  0  0  0  0  0999 V2000
    1.1300    0.8940    1.4770 N   0  0  0  0  0  0  0  0  0  0  0  0
   -0.1920   -0.2360    0.0700 C   0  0  0  0  0  0  0  0  0  0  0  0
    0.6050    0.8970    0.2060 C   0  0  0  0  0  0  0  0  0  0  0  0
    0.6960   -0.2060    2.1610 C   0  0  0  0  0  0  0  0  0  0  0  0
   -0.1220   -0.9240    1.3200 C   0  0  0  0  0  0  0  0  0  0  0  0
   -0.9280   -0.5970   -1.1380 C   0  0  0  0  0  0  0  0  0  0  0  0
    2.0060    1.9250    2.0560 C   0  0  0  0  0  0  0  0  0  0  0  0
    1.0340   -0.5760    3.5500 C   0  0  0  0  0  0  0  0  0  0  0  0
   -0.9080    0.0860   -2.1600 O   0  0  0  0  0  0  0  0  0  0  0  0
    0.0940   -0.3980    4.5730 C   0  0  0  0  0  0  0  0  0  0  0  0
    2.2900   -1.1140    3.8590 C   0  0  0  0  0  0  0  0  0  0  0  0
   -1.6560   -1.7650   -1.0560 N   0  0  0  0  0  0  0  0  0  0  0  0
    0.9290    1.9940   -0.7430 C   0  0  0  0  0  0  0  0  0  0  0  0
    1.6680   -1.2640    6.1900 C   0  0  0  0  0  0  0  0  0  0  0  0
    1.2300    3.0130    2.7800 C   0  0  0  0  0  0  0  0  0  0  0  0
    2.6060   -1.4530    5.1750 C   0  0  0  0  0  0  0  0  0  0  0  0
    0.4130   -0.7380    5.8890 C   0  0  0  0  0  0  0  0  0  0  0  0
    2.0510   -1.6120    7.4190 F   0  0  0  0  0  0  0  0  0  0  0  0
    1.0880    2.9750    4.1700 C   0  0  0  0  0  0  0  0  0  0  0  0
    0.6180    4.0410    2.0510 C   0  0  0  0  0  0  0  0  0  0  0  0
   -0.0990    5.0410    2.7130 C   0  0  0  0  0  0  0  0  0  0  0  0
    0.3700    3.9760    4.8300 C   0  0  0  0  0  0  0  0  0  0  0  0
   -0.2200    5.0100    4.1020 C   0  0  0  0  0  0  0  0  0  0  0  0
   -0.6250   -1.8490    1.5630 H   0  0  0  0  0  0  0  0  0  0  0  0
    2.5830    2.3840    1.2530 H   0  0  0  0  0  0  0  0  0  0  0  0
    2.6840    1.4490    2.7650 H   0  0  0  0  0  0  0  0  0  0  0  0
   -0.8820    0.0040    4.3430 H   0  0  0  0  0  0  0  0  0  0  0  0
    3.0170   -1.2670    3.0750 H   0  0  0  0  0  0  0  0  0  0  0  0
   -2.1940   -2.0820   -1.8500 H   0  0  0  0  0  0  0  0  0  0  0  0
   -1.6520   -2.3040   -0.2020 H   0  0  0  0  0  0  0  0  0  0  0  0
    1.5960    2.7080   -0.2590 H   0  0  0  0  0  0  0  0  0  0  0  0
    0.0110    2.5000   -1.0410 H   0  0  0  0  0  0  0  0  0  0  0  0
    1.4180    1.5790   -1.6240 H   0  0  0  0  0  0  0  0  0  0  0  0
    3.5780   -1.8620    5.4080 H   0  0  0  0  0  0  0  0  0  0  0  0
   -0.3140   -0.5930    6.6750 H   0  0  0  0  0  0  0  0  0  0  0  0
    1.5340    2.1700    4.7350 H   0  0  0  0  0  0  0  0  0  0  0  0
    0.7010    4.0610    0.9740 H   0  0  0  0  0  0  0  0  0  0  0  0
   -0.5600    5.8380    2.1490 H   0  0  0  0  0  0  0  0  0  0  0  0
    0.2720    3.9490    5.9050 H   0  0  0  0  0  0  0  0  0  0  0  0
   -0.7700    5.7860    4.6140 H   0  0  0  0  0  0  0  0  0  0  0  0
  1  3  1  0  0  0  0
  1  4  1  0  0  0  0
  1  7  1  0  0  0  0
  2  3  2  0  0  0  0
  2  5  1  0  0  0  0
  2  6  1  0  0  0  0
  3 13  1  0  0  0  0
  4  5  2  0  0  0  0
  4  8  1  0  0  0  0
  5 24  1  0  0  0  0
  6  9  2  0  0  0  0
  6 12  1  0  0  0  0
  7 15  1  0  0  0  0
  7 25  1  0  0  0  0
  7 26  1  0  0  0  0
  8 10  1  0  0  0  0
  8 11  2  0  0  0  0
 10 17  2  0  0  0  0
 10 27  1  0  0  0  0
 11 16  1  0  0  0  0
 11 28  1  0  0  0  0
 12 29  1  0  0  0  0
 12 30  1  0  0  0  0
 13 31  1  0  0  0  0
 13 32  1  0  0  0  0
 13 33  1  0  0  0  0
 14 16  2  0  0  0  0
 14 17  1  0  0  0  0
 14 18  1  0  0  0  0
 15 19  1  0  0  0  0
 15 20  2  0  0  0  0
 16 34  1  0  0  0  0
 17 35  1  0  0  0  0
 19 22  2  0  0  0  0
 19 36  1  0  0  0  0
 20 21  1  0  0  0  0
 20 37  1  0  0  0  0
 21 23  2  0  0  0  0
 21 38  1  0  0  0  0
 22 23  1  0  0  0  0
 22 39  1  0  0  0  0
 23 40  1  0  0  0  0
M  END
>  <$CLUSTER>
337

>  <INDEX>
220173

$$$$
EMC Microcollections 009B3724
  MOE2020           3D

 43 44  0  0  1  0  0  0  0  0999 V2000
    2.4110   -1.0210   -0.1920 C   0  0  0  0  0  0  0  0  0  0  0  0
    2.4030   -2.0040    0.7450 N   0  0  0  0  0  0  0  0  0  0  0  0
    3.6260   -2.4750    0.6690 C   0  0  0  0  0  0  0  0  0  0  0  0
    1.2120   -0.1660   -0.5010 C   0  0  0  0  0  0  0  0  0  0  0  0
    4.4290   -1.8710   -0.2480 O   0  0  0  0  0  0  0  0  0  0  0  0
    3.6230   -0.9240   -0.8050 C   0  0  0  0  0  0  0  0  0  0  0  0
    0.1180   -0.4900    0.2840 N   0  0  0  0  0  0  0  0  0  0  0  0
    1.2470    0.7210   -1.3500 O   0  0  0  0  0  0  0  0  0  0  0  0
    4.2460   -3.5890    1.4530 C   0  0  1  0  0  0  0  0  0  0  0  0
   -1.1630    0.2000    0.1830 C   0  0  0  0  0  0  0  0  0  0  0  0
    3.7930   -3.5910    2.8760 N   0  3  0  0  0  0  0  0  0  0  0  0
   -1.1780    1.4220    1.0970 C   0  0  0  0  0  0  0  0  0  0  0  0
   -2.3040   -0.7510    0.5240 C   0  0  0  0  0  0  0  0  0  0  0  0
   -2.5270    2.1370    1.0680 C   0  0  0  0  0  0  0  0  0  0  0  0
   -3.6600   -0.0480    0.4920 C   0  0  0  0  0  0  0  0  0  0  0  0
   -3.6790    1.1830    1.4080 C   0  0  0  0  0  0  0  0  0  0  0  0
    3.9070   -4.9460    0.8500 C   0  0  0  0  0  0  0  0  0  0  0  0
   -5.0240    1.9030    1.3160 C   0  0  0  0  0  0  0  0  0  0  0  0
    4.6080   -6.1620    1.4830 C   0  0  0  0  0  0  0  0  0  0  0  0
    3.8940   -0.2280   -1.5850 H   0  0  0  0  0  0  0  0  0  0  0  0
    0.2110   -1.2380    0.9570 H   0  0  0  0  0  0  0  0  0  0  0  0
    5.3220   -3.4200    1.4150 H   0  0  0  0  0  0  0  0  0  0  0  0
   -1.3010    0.5410   -0.8430 H   0  0  0  0  0  0  0  0  0  0  0  0
    2.7960   -3.7480    2.9120 H   0  0  0  0  0  0  0  0  0  0  0  0
    4.0090   -2.7000    3.2990 H   0  0  0  0  0  0  0  0  0  0  0  0
    4.2680   -4.3270    3.3790 H   0  0  0  0  0  0  0  0  0  0  0  0
   -0.9710    1.1010    2.1180 H   0  0  0  0  0  0  0  0  0  0  0  0
   -0.4040    2.1160    0.7700 H   0  0  0  0  0  0  0  0  0  0  0  0
   -2.3120   -1.5660   -0.2000 H   0  0  0  0  0  0  0  0  0  0  0  0
   -2.1400   -1.1550    1.5230 H   0  0  0  0  0  0  0  0  0  0  0  0
   -2.6890    2.5460    0.0710 H   0  0  0  0  0  0  0  0  0  0  0  0
   -2.5130    2.9480    1.7960 H   0  0  0  0  0  0  0  0  0  0  0  0
   -4.4290   -0.7470    0.8220 H   0  0  0  0  0  0  0  0  0  0  0  0
   -3.8710    0.2680   -0.5300 H   0  0  0  0  0  0  0  0  0  0  0  0
   -3.5430    0.8430    2.4350 H   0  0  0  0  0  0  0  0  0  0  0  0
    2.8310   -5.0940    0.9460 H   0  0  0  0  0  0  0  0  0  0  0  0
    4.1770   -4.9180   -0.2060 H   0  0  0  0  0  0  0  0  0  0  0  0
   -5.1800    2.2520    0.2950 H   0  0  0  0  0  0  0  0  0  0  0  0
   -5.0270    2.7550    1.9960 H   0  0  0  0  0  0  0  0  0  0  0  0
   -5.8240    1.2160    1.5920 H   0  0  0  0  0  0  0  0  0  0  0  0
    4.3560   -6.2160    2.5420 H   0  0  0  0  0  0  0  0  0  0  0  0
    5.6870   -6.0580    1.3710 H   0  0  0  0  0  0  0  0  0  0  0  0
    4.2770   -7.0730    0.9840 H   0  0  0  0  0  0  0  0  0  0  0  0
  1  2  1  0  0  0  0
  1  4  1  0  0  0  0
  1  6  2  0  0  0  0
  2  3  2  0  0  0  0
  3  5  1  0  0  0  0
  3  9  1  0  0  0  0
  4  7  1  0  0  0  0
  4  8  2  0  0  0  0
  5  6  1  0  0  0  0
  6 20  1  0  0  0  0
  7 10  1  0  0  0  0
  7 21  1  0  0  0  0
  9 11  1  0  0  0  0
  9 17  1  0  0  0  0
  9 22  1  0  0  0  0
 10 12  1  0  0  0  0
 10 13  1  0  0  0  0
 10 23  1  0  0  0  0
 11 24  1  0  0  0  0
 11 25  1  0  0  0  0
 11 26  1  0  0  0  0
 12 14  1  0  0  0  0
 12 27  1  0  0  0  0
 12 28  1  0  0  0  0
 13 15  1  0  0  0  0
 13 29  1  0  0  0  0
 13 30  1  0  0  0  0
 14 16  1  0  0  0  0
 14 31  1  0  0  0  0
 14 32  1  0  0  0  0
 15 16  1  0  0  0  0
 15 33  1  0  0  0  0
 15 34  1  0  0  0  0
 16 18  1  0  0  0  0
 16 35  1  0  0  0  0
 17 19  1  0  0  0  0
 17 36  1  0  0  0  0
 17 37  1  0  0  0  0
 18 38  1  0  0  0  0
 18 39  1  0  0  0  0
 18 40  1  0  0  0  0
 19 41  1  0  0  0  0
 19 42  1  0  0  0  0
 19 43  1  0  0  0  0
M  CHG  1  11   1
M  END
>  <$CLUSTER>
338

>  <INDEX>
218422

$$$$
EMC Microcollections 009B3203
  MOE2020           3D

 53 55  0  0  1  0  0  0  0  0999 V2000
    2.2710    3.3140    0.1040 C   0  0  0  0  0  0  0  0  0  0  0  0
    1.9770    3.2180   -1.2420 N   0  0  0  0  0  0  0  0  0  0  0  0
    1.5080    2.4800    1.1020 C   0  0  0  0  0  0  0  0  0  0  0  0
    2.8310    4.0730   -1.7530 C   0  0  0  0  0  0  0  0  0  0  0  0
    0.5450    1.6560    0.6010 N   0  0  0  0  0  0  0  0  0  0  0  0
    3.2480    4.1840    0.3420 C   0  0  0  0  0  0  0  0  0  0  0  0
    3.6390    4.7010   -0.8560 O   0  0  0  0  0  0  0  0  0  0  0  0
    1.7810    2.5760    2.3010 O   0  0  0  0  0  0  0  0  0  0  0  0
   -0.2610    0.7980    1.4750 C   0  0  0  0  0  0  0  0  0  0  0  0
    0.1630    1.4860   -0.8050 C   0  0  0  0  0  0  0  0  0  0  0  0
    3.0300    4.4350   -3.1900 C   0  0  2  0  0  0  0  0  0  0  0  0
    1.7360    4.4990   -3.9330 N   0  3  0  0  0  0  0  0  0  0  0  0
   -0.2060   -2.3770   -0.7550 C   0  0  0  0  0  0  0  0  0  0  0  0
    0.3310    0.0370   -1.2590 C   0  0  0  0  0  0  0  0  0  0  0  0
   -0.1100   -0.6770    1.1070 C   0  0  0  0  0  0  0  0  0  0  0  0
   -0.4620   -0.9230   -0.3640 C   0  0  0  0  0  0  0  0  0  0  0  0
   -1.0580   -3.3930   -0.0230 C   0  0  0  0  0  0  0  0  0  0  0  0
    3.9270    3.4260   -3.8960 C   0  0  0  0  0  0  0  0  0  0  0  0
   -2.3150   -3.7340   -0.5210 C   0  0  0  0  0  0  0  0  0  0  0  0
   -0.6330   -3.9020    1.2030 C   0  0  0  0  0  0  0  0  0  0  0  0
    4.3260    3.7770   -5.3520 C   0  0  0  0  0  0  0  0  0  0  0  0
    5.3180    2.7870   -5.9420 C   0  0  0  0  0  0  0  0  0  0  0  0
   -3.1220   -4.6300    0.1800 C   0  0  0  0  0  0  0  0  0  0  0  0
   -1.4420   -4.7980    1.9030 C   0  0  0  0  0  0  0  0  0  0  0  0
   -2.6850   -5.1630    1.3910 C   0  0  0  0  0  0  0  0  0  0  0  0
    3.6570    4.4350    1.3090 H   0  0  0  0  0  0  0  0  0  0  0  0
    0.0620    0.9400    2.5060 H   0  0  0  0  0  0  0  0  0  0  0  0
   -1.3090    1.0810    1.3800 H   0  0  0  0  0  0  0  0  0  0  0  0
   -0.8810    1.7770   -0.9260 H   0  0  0  0  0  0  0  0  0  0  0  0
    0.7930    2.1260   -1.4230 H   0  0  0  0  0  0  0  0  0  0  0  0
    3.4990    5.4190   -3.1900 H   0  0  0  0  0  0  0  0  0  0  0  0
    1.3020    3.5870   -3.9320 H   0  0  0  0  0  0  0  0  0  0  0  0
    1.9080    4.7890   -4.8850 H   0  0  0  0  0  0  0  0  0  0  0  0
    1.1230    5.1640   -3.4840 H   0  0  0  0  0  0  0  0  0  0  0  0
    0.8410   -2.6030   -0.5520 H   0  0  0  0  0  0  0  0  0  0  0  0
   -0.3990   -2.4800   -1.8230 H   0  0  0  0  0  0  0  0  0  0  0  0
   -0.0260   -0.0570   -2.2850 H   0  0  0  0  0  0  0  0  0  0  0  0
    1.3870   -0.2280   -1.2160 H   0  0  0  0  0  0  0  0  0  0  0  0
    0.9220   -0.9820    1.2810 H   0  0  0  0  0  0  0  0  0  0  0  0
   -0.7750   -1.2700    1.7350 H   0  0  0  0  0  0  0  0  0  0  0  0
   -1.5260   -0.7310   -0.5040 H   0  0  0  0  0  0  0  0  0  0  0  0
    4.8430    3.3280   -3.3130 H   0  0  0  0  0  0  0  0  0  0  0  0
    3.4040    2.4700   -3.9140 H   0  0  0  0  0  0  0  0  0  0  0  0
   -2.6630   -3.3050   -1.4490 H   0  0  0  0  0  0  0  0  0  0  0  0
    0.3210   -3.6030    1.6110 H   0  0  0  0  0  0  0  0  0  0  0  0
    3.4270    3.7800   -5.9690 H   0  0  0  0  0  0  0  0  0  0  0  0
    4.7760    4.7700   -5.3610 H   0  0  0  0  0  0  0  0  0  0  0  0
    4.8800    1.7890   -5.9390 H   0  0  0  0  0  0  0  0  0  0  0  0
    6.2290    2.7860   -5.3440 H   0  0  0  0  0  0  0  0  0  0  0  0
    5.5560    3.0770   -6.9660 H   0  0  0  0  0  0  0  0  0  0  0  0
   -4.0870   -4.9110   -0.2160 H   0  0  0  0  0  0  0  0  0  0  0  0
   -1.1040   -5.2090    2.8430 H   0  0  0  0  0  0  0  0  0  0  0  0
   -3.3090   -5.8580    1.9320 H   0  0  0  0  0  0  0  0  0  0  0  0
  1  2  1  0  0  0  0
  1  3  1  0  0  0  0
  1  6  2  0  0  0  0
  2  4  2  0  0  0  0
  3  5  1  0  0  0  0
  3  8  2  0  0  0  0
  4  7  1  0  0  0  0
  4 11  1  0  0  0  0
  5  9  1  0  0  0  0
  5 10  1  0  0  0  0
  6  7  1  0  0  0  0
  6 26  1  0  0  0  0
  9 15  1  0  0  0  0
  9 27  1  0  0  0  0
  9 28  1  0  0  0  0
 10 14  1  0  0  0  0
 10 29  1  0  0  0  0
 10 30  1  0  0  0  0
 11 12  1  0  0  0  0
 11 18  1  0  0  0  0
 11 31  1  0  0  0  0
 12 32  1  0  0  0  0
 12 33  1  0  0  0  0
 12 34  1  0  0  0  0
 13 16  1  0  0  0  0
 13 17  1  0  0  0  0
 13 35  1  0  0  0  0
 13 36  1  0  0  0  0
 14 16  1  0  0  0  0
 14 37  1  0  0  0  0
 14 38  1  0  0  0  0
 15 16  1  0  0  0  0
 15 39  1  0  0  0  0
 15 40  1  0  0  0  0
 16 41  1  0  0  0  0
 17 19  2  0  0  0  0
 17 20  1  0  0  0  0
 18 21  1  0  0  0  0
 18 42  1  0  0  0  0
 18 43  1  0  0  0  0
 19 23  1  0  0  0  0
 19 44  1  0  0  0  0
 20 24  2  0  0  0  0
 20 45  1  0  0  0  0
 21 22  1  0  0  0  0
 21 46  1  0  0  0  0
 21 47  1  0  0  0  0
 22 48  1  0  0  0  0
 22 49  1  0  0  0  0
 22 50  1  0  0  0  0
 23 25  2  0  0  0  0
 23 51  1  0  0  0  0
 24 25  1  0  0  0  0
 24 52  1  0  0  0  0
 25 53  1  0  0  0  0
M  CHG  1  12   1
M  END
>  <$CLUSTER>
339

>  <INDEX>
218043

$$$$
EMC Microcollections 009B3958
  MOE2020           3D

 43 44  0  0  1  0  0  0  0  0999 V2000
    0.2900    1.5800   -1.5560 C   0  0  0  0  0  0  0  0  0  0  0  0
    1.6280    1.7630   -1.6950 N   0  0  0  0  0  0  0  0  0  0  0  0
    1.6880    2.7530   -2.5540 C   0  0  0  0  0  0  0  0  0  0  0  0
    0.4880    3.2280   -2.9850 O   0  0  0  0  0  0  0  0  0  0  0  0
   -0.4170    2.4520   -2.3260 C   0  0  0  0  0  0  0  0  0  0  0  0
   -0.3110    0.5310   -0.6600 C   0  0  0  0  0  0  0  0  0  0  0  0
   -1.5250    0.3870   -0.5480 O   0  0  0  0  0  0  0  0  0  0  0  0
    2.9010    3.4290   -3.1160 C   0  0  2  0  0  0  0  0  0  0  0  0
    0.6530   -0.2090    0.0040 N   0  0  0  0  0  0  0  0  0  0  0  0
    0.7670   -2.5170    4.0040 C   0  0  0  0  0  0  0  0  0  0  0  0
    4.0070    2.4620   -3.3820 N   0  3  0  0  0  0  0  0  0  0  0  0
    0.4610   -3.5510    4.8890 C   0  0  0  0  0  0  0  0  0  0  0  0
    1.3770   -4.2210    5.5910 F   0  0  0  0  0  0  0  0  0  0  0  0
   -0.2530   -1.8580    3.3090 C   0  0  0  0  0  0  0  0  0  0  0  0
    0.3250   -1.2780    0.9280 C   0  0  0  0  0  0  0  0  0  0  0  0
   -1.8830   -3.2930    4.3840 C   0  0  0  0  0  0  0  0  0  0  0  0
    0.0810   -0.7470    2.3280 C   0  0  0  0  0  0  0  0  0  0  0  0
   -0.8640   -3.9380    5.0790 C   0  0  0  0  0  0  0  0  0  0  0  0
   -1.5790   -2.2590    3.4980 C   0  0  0  0  0  0  0  0  0  0  0  0
    3.4300    4.4950   -2.1640 C   0  0  0  0  0  0  0  0  0  0  0  0
    4.5940    5.3650   -2.7010 C   0  0  0  0  0  0  0  0  0  0  0  0
    4.9810    6.4820   -1.7440 C   0  0  0  0  0  0  0  0  0  0  0  0
   -1.4930    2.5160   -2.4000 H   0  0  0  0  0  0  0  0  0  0  0  0
    2.5830    3.8850   -4.0540 H   0  0  0  0  0  0  0  0  0  0  0  0
    1.6260    0.0050   -0.1620 H   0  0  0  0  0  0  0  0  0  0  0  0
    1.7960   -2.2240    3.8550 H   0  0  0  0  0  0  0  0  0  0  0  0
    4.3010    2.0400   -2.5130 H   0  0  0  0  0  0  0  0  0  0  0  0
    4.7870    2.9490   -3.8000 H   0  0  0  0  0  0  0  0  0  0  0  0
    3.6810    1.7430   -4.0120 H   0  0  0  0  0  0  0  0  0  0  0  0
   -0.5750   -1.7840    0.5790 H   0  0  0  0  0  0  0  0  0  0  0  0
    1.1520   -1.9870    0.9570 H   0  0  0  0  0  0  0  0  0  0  0  0
   -2.9100   -3.5930    4.5310 H   0  0  0  0  0  0  0  0  0  0  0  0
    0.9790   -0.2330    2.6710 H   0  0  0  0  0  0  0  0  0  0  0  0
   -0.7510   -0.0430    2.2970 H   0  0  0  0  0  0  0  0  0  0  0  0
   -1.1000   -4.7380    5.7650 H   0  0  0  0  0  0  0  0  0  0  0  0
   -2.3720   -1.7660    2.9550 H   0  0  0  0  0  0  0  0  0  0  0  0
    2.6030    5.1600   -1.9150 H   0  0  0  0  0  0  0  0  0  0  0  0
    3.7770    3.9930   -1.2610 H   0  0  0  0  0  0  0  0  0  0  0  0
    5.4620    4.7260   -2.8610 H   0  0  0  0  0  0  0  0  0  0  0  0
    4.2900    5.8080   -3.6490 H   0  0  0  0  0  0  0  0  0  0  0  0
    5.2880    6.0530   -0.7900 H   0  0  0  0  0  0  0  0  0  0  0  0
    4.1260    7.1400   -1.5880 H   0  0  0  0  0  0  0  0  0  0  0  0
    5.8070    7.0540   -2.1680 H   0  0  0  0  0  0  0  0  0  0  0  0
  1  2  1  0  0  0  0
  1  5  2  0  0  0  0
  1  6  1  0  0  0  0
  2  3  2  0  0  0  0
  3  4  1  0  0  0  0
  3  8  1  0  0  0  0
  4  5  1  0  0  0  0
  5 23  1  0  0  0  0
  6  7  2  0  0  0  0
  6  9  1  0  0  0  0
  8 11  1  0  0  0  0
  8 20  1  0  0  0  0
  8 24  1  0  0  0  0
  9 15  1  0  0  0  0
  9 25  1  0  0  0  0
 10 12  1  0  0  0  0
 10 14  2  0  0  0  0
 10 26  1  0  0  0  0
 11 27  1  0  0  0  0
 11 28  1  0  0  0  0
 11 29  1  0  0  0  0
 12 13  1  0  0  0  0
 12 18  2  0  0  0  0
 14 17  1  0  0  0  0
 14 19  1  0  0  0  0
 15 17  1  0  0  0  0
 15 30  1  0  0  0  0
 15 31  1  0  0  0  0
 16 18  1  0  0  0  0
 16 19  2  0  0  0  0
 16 32  1  0  0  0  0
 17 33  1  0  0  0  0
 17 34  1  0  0  0  0
 18 35  1  0  0  0  0
 19 36  1  0  0  0  0
 20 21  1  0  0  0  0
 20 37  1  0  0  0  0
 20 38  1  0  0  0  0
 21 22  1  0  0  0  0
 21 39  1  0  0  0  0
 21 40  1  0  0  0  0
 22 41  1  0  0  0  0
 22 42  1  0  0  0  0
 22 43  1  0  0  0  0
M  CHG  1  11   1
M  END
>  <$CLUSTER>
340

>  <INDEX>
218617

$$$$
EMC Microcollections 009B3204
  MOE2020           3D

 51 53  0  0  1  0  0  0  0  0999 V2000
   -6.2390   -4.0180   -1.2370 C   0  0  0  0  0  0  0  0  0  0  0  0
   -7.2590   -3.3120   -0.6720 N   0  0  0  0  0  0  0  0  0  0  0  0
   -8.2880   -4.1100   -0.8370 C   0  0  0  0  0  0  0  0  0  0  0  0
   -4.8160   -3.5220   -1.3030 C   0  0  0  0  0  0  0  0  0  0  0  0
   -8.0200   -5.2860   -1.4670 O   0  0  0  0  0  0  0  0  0  0  0  0
   -6.6850   -5.2160   -1.7230 C   0  0  0  0  0  0  0  0  0  0  0  0
   -0.1530    1.1050   -0.0840 C   0  0  0  0  0  0  0  0  0  0  0  0
   -4.6940   -2.2670   -0.7190 N   0  0  0  0  0  0  0  0  0  0  0  0
   -1.3000    0.1900   -0.2510 C   0  0  0  0  0  0  0  0  0  0  0  0
    1.2020    0.6040    0.2230 C   0  0  0  0  0  0  0  0  0  0  0  0
   -3.9380   -4.2010   -1.8250 O   0  0  0  0  0  0  0  0  0  0  0  0
   -0.3300    2.3120   -0.2030 O   0  0  0  0  0  0  0  0  0  0  0  0
   -9.7080   -3.8970   -0.4190 C   0  0  2  0  0  0  0  0  0  0  0  0
   -3.5110   -1.4770   -0.5870 C   0  0  0  0  0  0  0  0  0  0  0  0
    2.3030    1.2570   -0.3390 C   0  0  0  0  0  0  0  0  0  0  0  0
   -1.1520   -1.0410   -0.8950 C   0  0  0  0  0  0  0  0  0  0  0  0
    1.3930   -0.4710    1.0950 C   0  0  0  0  0  0  0  0  0  0  0  0
   -2.5570    0.5980    0.2070 C   0  0  0  0  0  0  0  0  0  0  0  0
    3.7860   -0.2680    0.8110 C   0  0  0  0  0  0  0  0  0  0  0  0
  -10.1360   -2.4780   -0.5980 N   0  3  0  0  0  0  0  0  0  0  0  0
   -3.6600   -0.2410    0.0420 C   0  0  0  0  0  0  0  0  0  0  0  0
   -2.2600   -1.8750   -1.0570 C   0  0  0  0  0  0  0  0  0  0  0  0
    5.0560   -0.6980    1.0890 N   0  0  0  0  0  0  0  0  0  0  0  0
    2.6870   -0.9080    1.3830 C   0  0  0  0  0  0  0  0  0  0  0  0
    3.5940    0.8150   -0.0470 C   0  0  0  0  0  0  0  0  0  0  0  0
   -9.9160   -4.2690    1.0440 C   0  0  0  0  0  0  0  0  0  0  0  0
  -11.3790   -4.2320    1.5510 C   0  0  0  0  0  0  0  0  0  0  0  0
  -11.5170   -4.7340    2.9800 C   0  0  0  0  0  0  0  0  0  0  0  0
   -6.0880   -5.9680   -2.2180 H   0  0  0  0  0  0  0  0  0  0  0  0
   -5.5420   -1.8660   -0.3440 H   0  0  0  0  0  0  0  0  0  0  0  0
  -10.3100   -4.5420   -1.0600 H   0  0  0  0  0  0  0  0  0  0  0  0
    2.1550    2.1010   -0.9970 H   0  0  0  0  0  0  0  0  0  0  0  0
   -0.1850   -1.3460   -1.2660 H   0  0  0  0  0  0  0  0  0  0  0  0
    0.5430   -0.9620    1.5440 H   0  0  0  0  0  0  0  0  0  0  0  0
   -2.6740    1.5590    0.6870 H   0  0  0  0  0  0  0  0  0  0  0  0
   -9.5790   -1.8810   -0.0040 H   0  0  0  0  0  0  0  0  0  0  0  0
  -11.1100   -2.3860   -0.3480 H   0  0  0  0  0  0  0  0  0  0  0  0
  -10.0090   -2.2070   -1.5630 H   0  0  0  0  0  0  0  0  0  0  0  0
   -4.6300    0.0670    0.4020 H   0  0  0  0  0  0  0  0  0  0  0  0
   -2.1480   -2.8310   -1.5470 H   0  0  0  0  0  0  0  0  0  0  0  0
    5.8490   -0.2310    0.6730 H   0  0  0  0  0  0  0  0  0  0  0  0
    5.1990   -1.4820    1.7100 H   0  0  0  0  0  0  0  0  0  0  0  0
    2.8370   -1.7440    2.0500 H   0  0  0  0  0  0  0  0  0  0  0  0
    4.4460    1.3120   -0.4860 H   0  0  0  0  0  0  0  0  0  0  0  0
   -9.5380   -5.2810    1.1880 H   0  0  0  0  0  0  0  0  0  0  0  0
   -9.3350   -3.5750    1.6510 H   0  0  0  0  0  0  0  0  0  0  0  0
  -11.7380   -3.2040    1.5060 H   0  0  0  0  0  0  0  0  0  0  0  0
  -11.9900   -4.8580    0.9010 H   0  0  0  0  0  0  0  0  0  0  0  0
  -10.9110   -4.1160    3.6420 H   0  0  0  0  0  0  0  0  0  0  0  0
  -11.1770   -5.7680    3.0360 H   0  0  0  0  0  0  0  0  0  0  0  0
  -12.5620   -4.6780    3.2860 H   0  0  0  0  0  0  0  0  0  0  0  0
  1  2  1  0  0  0  0
  1  4  1  0  0  0  0
  1  6  2  0  0  0  0
  2  3  2  0  0  0  0
  3  5  1  0  0  0  0
  3 13  1  0  0  0  0
  4  8  1  0  0  0  0
  4 11  2  0  0  0  0
  5  6  1  0  0  0  0
  6 29  1  0  0  0  0
  7  9  1  0  0  0  0
  7 10  1  0  0  0  0
  7 12  2  0  0  0  0
  8 14  1  0  0  0  0
  8 30  1  0  0  0  0
  9 16  1  0  0  0  0
  9 18  2  0  0  0  0
 10 15  1  0  0  0  0
 10 17  2  0  0  0  0
 13 20  1  0  0  0  0
 13 26  1  0  0  0  0
 13 31  1  0  0  0  0
 14 21  2  0  0  0  0
 14 22  1  0  0  0  0
 15 25  2  0  0  0  0
 15 32  1  0  0  0  0
 16 22  2  0  0  0  0
 16 33  1  0  0  0  0
 17 24  1  0  0  0  0
 17 34  1  0  0  0  0
 18 21  1  0  0  0  0
 18 35  1  0  0  0  0
 19 23  1  0  0  0  0
 19 24  2  0  0  0  0
 19 25  1  0  0  0  0
 20 36  1  0  0  0  0
 20 37  1  0  0  0  0
 20 38  1  0  0  0  0
 21 39  1  0  0  0  0
 22 40  1  0  0  0  0
 23 41  1  0  0  0  0
 23 42  1  0  0  0  0
 24 43  1  0  0  0  0
 25 44  1  0  0  0  0
 26 27  1  0  0  0  0
 26 45  1  0  0  0  0
 26 46  1  0  0  0  0
 27 28  1  0  0  0  0
 27 47  1  0  0  0  0
 27 48  1  0  0  0  0
 28 49  1  0  0  0  0
 28 50  1  0  0  0  0
 28 51  1  0  0  0  0
M  CHG  1  20   1
M  END
>  <$CLUSTER>
341

>  <INDEX>
218044

$$$$
EMC Microcollections 010F0628
  MOE2020           3D

 61 64  0  0  1  0  0  0  0  0999 V2000
   -0.3870    0.1300   -0.6710 C   0  0  2  0  0  0  0  0  0  0  0  0
    0.1690    1.2880   -1.4930 C   0  0  0  0  0  0  0  0  0  0  0  0
    0.1260    0.1790    0.7720 C   0  0  1  0  0  0  0  0  0  0  0  0
   -0.4270    2.4940   -1.1980 N   0  0  0  0  0  0  0  0  0  0  0  0
   -0.8580   -0.4850    1.7290 C   0  0  0  0  0  0  0  0  0  0  0  0
   -1.3010    4.6760   -1.8920 C   0  0  0  0  0  0  0  0  0  0  0  0
   -0.0860    3.7570   -1.8240 C   0  0  3  0  0  0  0  0  0  0  0  0
   -1.4700    5.6510   -2.9500 C   0  0  0  0  0  0  0  0  0  0  0  0
   -1.9750    0.2820    1.9740 N   0  0  0  0  0  0  0  0  0  0  0  0
    1.3270   -1.5270   -0.4100 N   0  3  0  0  0  0  0  0  0  0  0  0
    1.0590    1.1620   -2.3290 O   0  0  0  0  0  0  0  0  0  0  0  0
   -0.6780   -1.5930    2.2270 O   0  0  0  0  0  0  0  0  0  0  0  0
    0.0710   -1.2330   -1.1740 C   0  0  0  0  0  0  0  0  0  0  0  0
    1.4690   -0.5350    0.7060 C   0  0  0  0  0  0  0  0  0  0  0  0
   -2.6110    6.5050   -2.9360 C   0  0  0  0  0  0  0  0  0  0  0  0
   -3.0610   -0.1100    2.8380 C   0  0  0  0  0  0  0  0  0  0  0  0
   -4.0700   -2.3570    2.2170 C   0  0  0  0  0  0  0  0  0  0  0  0
   -4.0800   -0.9560    2.1000 C   0  0  0  0  0  0  0  0  0  0  0  0
   -5.0150   -3.1340    1.5390 C   0  0  0  0  0  0  0  0  0  0  0  0
   -2.2600    4.6630   -0.8610 C   0  0  0  0  0  0  0  0  0  0  0  0
   -0.5590    5.8110   -4.0210 C   0  0  0  0  0  0  0  0  0  0  0  0
   -3.3680    5.5050   -0.8610 C   0  0  0  0  0  0  0  0  0  0  0  0
    1.0650    4.4240   -1.0750 C   0  0  0  0  0  0  0  0  0  0  0  0
   -5.9930   -1.1320    0.6040 C   0  0  0  0  0  0  0  0  0  0  0  0
   -3.5450    6.4170   -1.8950 C   0  0  0  0  0  0  0  0  0  0  0  0
   -5.0490   -0.3550    1.2800 C   0  0  0  0  0  0  0  0  0  0  0  0
   -5.9770   -2.5210    0.7360 C   0  0  0  0  0  0  0  0  0  0  0  0
   -2.8080    7.4450   -3.9600 C   0  0  0  0  0  0  0  0  0  0  0  0
   -4.9910   -4.6210    1.6780 C   0  0  0  0  0  0  0  0  0  0  0  0
   -0.7690    6.7530   -5.0310 C   0  0  0  0  0  0  0  0  0  0  0  0
   -1.8930    7.5680   -5.0030 C   0  0  0  0  0  0  0  0  0  0  0  0
   -1.4680    0.2420   -0.7490 H   0  0  0  0  0  0  0  0  0  0  0  0
    0.2320    1.1920    1.1590 H   0  0  0  0  0  0  0  0  0  0  0  0
   -1.1530    2.4990   -0.4960 H   0  0  0  0  0  0  0  0  0  0  0  0
    0.2380    3.5610   -2.8460 H   0  0  0  0  0  0  0  0  0  0  0  0
   -2.0380    1.1810    1.5170 H   0  0  0  0  0  0  0  0  0  0  0  0
    1.2790   -2.4610   -0.0280 H   0  0  0  0  0  0  0  0  0  0  0  0
    2.1230   -1.4560   -1.0280 H   0  0  0  0  0  0  0  0  0  0  0  0
    0.2730   -1.1980   -2.2450 H   0  0  0  0  0  0  0  0  0  0  0  0
   -0.6860   -1.9900   -0.9720 H   0  0  0  0  0  0  0  0  0  0  0  0
    1.6790   -1.0440    1.6470 H   0  0  0  0  0  0  0  0  0  0  0  0
    2.2690    0.1730    0.4900 H   0  0  0  0  0  0  0  0  0  0  0  0
   -2.6600   -0.6860    3.6720 H   0  0  0  0  0  0  0  0  0  0  0  0
   -3.5530    0.7860    3.2180 H   0  0  0  0  0  0  0  0  0  0  0  0
   -3.3260   -2.8370    2.8360 H   0  0  0  0  0  0  0  0  0  0  0  0
   -2.1310    3.9740   -0.0400 H   0  0  0  0  0  0  0  0  0  0  0  0
    0.3220    5.1880   -4.0590 H   0  0  0  0  0  0  0  0  0  0  0  0
   -4.0890    5.4500   -0.0590 H   0  0  0  0  0  0  0  0  0  0  0  0
    0.7600    4.6290   -0.0490 H   0  0  0  0  0  0  0  0  0  0  0  0
    1.3270    5.3590   -1.5700 H   0  0  0  0  0  0  0  0  0  0  0  0
    1.9290    3.7600   -1.0720 H   0  0  0  0  0  0  0  0  0  0  0  0
   -6.7350   -0.6580   -0.0210 H   0  0  0  0  0  0  0  0  0  0  0  0
   -4.4100    7.0640   -1.8960 H   0  0  0  0  0  0  0  0  0  0  0  0
   -5.0650    0.7190    1.1710 H   0  0  0  0  0  0  0  0  0  0  0  0
   -6.7090   -3.1210    0.2170 H   0  0  0  0  0  0  0  0  0  0  0  0
   -3.6810    8.0810   -3.9390 H   0  0  0  0  0  0  0  0  0  0  0  0
   -5.7950   -5.0550    1.0830 H   0  0  0  0  0  0  0  0  0  0  0  0
   -5.1280   -4.8900    2.7250 H   0  0  0  0  0  0  0  0  0  0  0  0
   -4.0320   -5.0030    1.3270 H   0  0  0  0  0  0  0  0  0  0  0  0
   -0.0550    6.8480   -5.8360 H   0  0  0  0  0  0  0  0  0  0  0  0
   -2.0570    8.2940   -5.7860 H   0  0  0  0  0  0  0  0  0  0  0  0
  1  2  1  0  0  0  0
  1  3  1  0  0  0  0
  1 13  1  0  0  0  0
  1 32  1  0  0  0  0
  2  4  1  0  0  0  0
  2 11  2  0  0  0  0
  3  5  1  0  0  0  0
  3 14  1  0  0  0  0
  3 33  1  0  0  0  0
  4  7  1  0  0  0  0
  4 34  1  0  0  0  0
  5  9  1  0  0  0  0
  5 12  2  0  0  0  0
  6  7  1  0  0  0  0
  6  8  1  0  0  0  0
  6 20  2  0  0  0  0
  7 23  1  0  0  0  0
  7 35  1  0  0  0  0
  8 15  1  0  0  0  0
  8 21  2  0  0  0  0
  9 16  1  0  0  0  0
  9 36  1  0  0  0  0
 10 13  1  0  0  0  0
 10 14  1  0  0  0  0
 10 37  1  0  0  0  0
 10 38  1  0  0  0  0
 13 39  1  0  0  0  0
 13 40  1  0  0  0  0
 14 41  1  0  0  0  0
 14 42  1  0  0  0  0
 15 25  1  0  0  0  0
 15 28  2  0  0  0  0
 16 18  1  0  0  0  0
 16 43  1  0  0  0  0
 16 44  1  0  0  0  0
 17 18  1  0  0  0  0
 17 19  2  0  0  0  0
 17 45  1  0  0  0  0
 18 26  2  0  0  0  0
 19 27  1  0  0  0  0
 19 29  1  0  0  0  0
 20 22  1  0  0  0  0
 20 46  1  0  0  0  0
 21 30  1  0  0  0  0
 21 47  1  0  0  0  0
 22 25  2  0  0  0  0
 22 48  1  0  0  0  0
 23 49  1  0  0  0  0
 23 50  1  0  0  0  0
 23 51  1  0  0  0  0
 24 26  1  0  0  0  0
 24 27  2  0  0  0  0
 24 52  1  0  0  0  0
 25 53  1  0  0  0  0
 26 54  1  0  0  0  0
 27 55  1  0  0  0  0
 28 31  1  0  0  0  0
 28 56  1  0  0  0  0
 29 57  1  0  0  0  0
 29 58  1  0  0  0  0
 29 59  1  0  0  0  0
 30 31  2  0  0  0  0
 30 60  1  0  0  0  0
 31 61  1  0  0  0  0
M  CHG  1  10   1
M  END
>  <$CLUSTER>
342

>  <INDEX>
219440

$$$$
Labotest LT02086351
  MOE2020           3D

 29 30  0  0  0  0  0  0  0  0999 V2000
    0.5350   -0.3620   -1.0390 N   0  0  0  0  0  0  0  0  0  0  0  0
    4.0540   -0.0380    2.6580 C   0  0  0  0  0  0  0  0  0  0  0  0
    0.2200    0.3000    0.1270 C   0  0  0  0  0  0  0  0  0  0  0  0
   -1.6630   -0.0860   -0.9020 N   0  0  0  0  0  0  0  0  0  0  0  0
   -0.6180   -0.5790   -1.6310 C   0  0  0  0  0  0  0  0  0  0  0  0
    4.9170    0.4740    3.7790 C   0  0  0  0  0  0  0  0  0  0  0  0
   -1.1440    0.4810    0.2280 C   0  0  0  0  0  0  0  0  0  0  0  0
    4.5320   -0.4440    1.6020 O   0  0  0  0  0  0  0  0  0  0  0  0
    2.7100    0.0310    2.9640 N   0  0  0  0  0  0  0  0  0  0  0  0
    4.5700    0.4410    5.1040 C   0  0  0  0  0  0  0  0  0  0  0  0
    6.2100    0.9450    3.3980 C   0  0  0  0  0  0  0  0  0  0  0  0
    1.2850    0.7150    1.0740 C   0  0  0  0  0  0  0  0  0  0  0  0
    6.7070    1.3930    5.7200 C   0  0  0  0  0  0  0  0  0  0  0  0
    1.6690   -0.4000    2.0340 C   0  0  0  0  0  0  0  0  0  0  0  0
    7.0860    1.4100    4.3810 C   0  0  0  0  0  0  0  0  0  0  0  0
    5.4510    0.9070    6.0820 C   0  0  0  0  0  0  0  0  0  0  0  0
    7.7840    1.9700    6.9060 Cl  0  0  0  0  0  0  0  0  0  0  0  0
   -2.6400   -0.1320   -1.1520 H   0  0  0  0  0  0  0  0  0  0  0  0
   -0.7260   -1.0860   -2.5790 H   0  0  0  0  0  0  0  0  0  0  0  0
   -1.6850    0.9660    1.0270 H   0  0  0  0  0  0  0  0  0  0  0  0
    2.4350    0.3940    3.8660 H   0  0  0  0  0  0  0  0  0  0  0  0
    3.6060    0.0510    5.3950 H   0  0  0  0  0  0  0  0  0  0  0  0
    6.5080    0.9420    2.3600 H   0  0  0  0  0  0  0  0  0  0  0  0
    0.9280    1.5680    1.6520 H   0  0  0  0  0  0  0  0  0  0  0  0
    2.1670    1.0060    0.5040 H   0  0  0  0  0  0  0  0  0  0  0  0
    0.7880   -0.6980    2.6020 H   0  0  0  0  0  0  0  0  0  0  0  0
    2.0360   -1.2510    1.4600 H   0  0  0  0  0  0  0  0  0  0  0  0
    8.0600    1.7840    4.1020 H   0  0  0  0  0  0  0  0  0  0  0  0
    5.1590    0.8910    7.1220 H   0  0  0  0  0  0  0  0  0  0  0  0
  1  3  1  0  0  0  0
  1  5  2  0  0  0  0
  2  6  1  0  0  0  0
  2  8  2  0  0  0  0
  2  9  1  0  0  0  0
  3  7  2  0  0  0  0
  3 12  1  0  0  0  0
  4  5  1  0  0  0  0
  4  7  1  0  0  0  0
  4 18  1  0  0  0  0
  5 19  1  0  0  0  0
  6 10  1  0  0  0  0
  6 11  2  0  0  0  0
  7 20  1  0  0  0  0
  9 14  1  0  0  0  0
  9 21  1  0  0  0  0
 10 16  2  0  0  0  0
 10 22  1  0  0  0  0
 11 15  1  0  0  0  0
 11 23  1  0  0  0  0
 12 14  1  0  0  0  0
 12 24  1  0  0  0  0
 12 25  1  0  0  0  0
 13 15  2  0  0  0  0
 13 16  1  0  0  0  0
 13 17  1  0  0  0  0
 14 26  1  0  0  0  0
 14 27  1  0  0  0  0
 15 28  1  0  0  0  0
 16 29  1  0  0  0  0
M  END
>  <$CLUSTER>
343

>  <INDEX>
324501

$$$$
EMC Microcollections 013A0485
  MOE2020           3D

 40 41  0  0  1  0  0  0  0  0999 V2000
    0.2900    1.5800   -1.5560 C   0  0  0  0  0  0  0  0  0  0  0  0
    1.6510    1.7220   -1.6580 N   0  0  0  0  0  0  0  0  0  0  0  0
    1.9130    2.6960   -2.5000 C   0  0  0  0  0  0  0  0  0  0  0  0
    0.5590    3.4790   -3.2020 S   0  0  0  0  0  0  0  0  0  0  0  0
   -0.3110    0.5310   -0.6600 C   0  0  0  0  0  0  0  0  0  0  0  0
   -0.4720    2.4360   -2.3130 C   0  0  0  0  0  0  0  0  0  0  0  0
    0.6530   -0.2090    0.0040 N   0  0  0  0  0  0  0  0  0  0  0  0
   -1.5250    0.3870   -0.5480 O   0  0  0  0  0  0  0  0  0  0  0  0
    3.3110    3.1420   -2.8590 C   0  0  2  0  0  0  0  0  0  0  0  0
    0.3250   -1.2780    0.9280 C   0  0  0  0  0  0  0  0  0  0  0  0
   -0.3660    0.2280    4.9260 C   0  0  0  0  0  0  0  0  0  0  0  0
    0.0810   -0.7470    2.3280 C   0  0  0  0  0  0  0  0  0  0  0  0
    4.2240    1.9790   -3.0760 N   0  3  0  0  0  0  0  0  0  0  0  0
   -0.6520    0.8080    6.5000 Cl  0  0  0  0  0  0  0  0  0  0  0  0
   -1.4480   -0.0570    4.0910 C   0  0  0  0  0  0  0  0  0  0  0  0
    0.9370    0.0360    4.4670 C   0  0  0  0  0  0  0  0  0  0  0  0
   -1.2260   -0.5400    2.7980 C   0  0  0  0  0  0  0  0  0  0  0  0
    1.1600   -0.4460    3.1750 C   0  0  0  0  0  0  0  0  0  0  0  0
    3.9150    4.0080   -1.7580 C   0  0  0  0  0  0  0  0  0  0  0  0
    5.2860    4.6450   -2.0800 C   0  0  0  0  0  0  0  0  0  0  0  0
    5.7610    5.5940   -0.9890 C   0  0  0  0  0  0  0  0  0  0  0  0
   -1.5510    2.4500   -2.3440 H   0  0  0  0  0  0  0  0  0  0  0  0
    1.6260    0.0050   -0.1620 H   0  0  0  0  0  0  0  0  0  0  0  0
    3.2190    3.7150   -3.7820 H   0  0  0  0  0  0  0  0  0  0  0  0
   -0.5750   -1.7840    0.5790 H   0  0  0  0  0  0  0  0  0  0  0  0
    1.1520   -1.9870    0.9570 H   0  0  0  0  0  0  0  0  0  0  0  0
    4.3060    1.4510   -2.2190 H   0  0  0  0  0  0  0  0  0  0  0  0
    5.1350    2.3140   -3.3540 H   0  0  0  0  0  0  0  0  0  0  0  0
    3.8470    1.3860   -3.8020 H   0  0  0  0  0  0  0  0  0  0  0  0
   -2.4570    0.0960    4.4440 H   0  0  0  0  0  0  0  0  0  0  0  0
    1.7740    0.2600    5.1110 H   0  0  0  0  0  0  0  0  0  0  0  0
   -2.0670   -0.7560    2.1550 H   0  0  0  0  0  0  0  0  0  0  0  0
    2.1710   -0.5880    2.8240 H   0  0  0  0  0  0  0  0  0  0  0  0
    3.2130    4.8140   -1.5440 H   0  0  0  0  0  0  0  0  0  0  0  0
    4.0350    3.3860   -0.8710 H   0  0  0  0  0  0  0  0  0  0  0  0
    6.0220    3.8490   -2.1960 H   0  0  0  0  0  0  0  0  0  0  0  0
    5.2020    5.2010   -3.0140 H   0  0  0  0  0  0  0  0  0  0  0  0
    5.8490    5.0510   -0.0480 H   0  0  0  0  0  0  0  0  0  0  0  0
    5.0420    6.4050   -0.8740 H   0  0  0  0  0  0  0  0  0  0  0  0
    6.7320    6.0060   -1.2630 H   0  0  0  0  0  0  0  0  0  0  0  0
  1  2  1  0  0  0  0
  1  5  1  0  0  0  0
  1  6  2  0  0  0  0
  2  3  2  0  0  0  0
  3  4  1  0  0  0  0
  3  9  1  0  0  0  0
  4  6  1  0  0  0  0
  5  7  1  0  0  0  0
  5  8  2  0  0  0  0
  6 22  1  0  0  0  0
  7 10  1  0  0  0  0
  7 23  1  0  0  0  0
  9 13  1  0  0  0  0
  9 19  1  0  0  0  0
  9 24  1  0  0  0  0
 10 12  1  0  0  0  0
 10 25  1  0  0  0  0
 10 26  1  0  0  0  0
 11 14  1  0  0  0  0
 11 15  2  0  0  0  0
 11 16  1  0  0  0  0
 12 17  2  0  0  0  0
 12 18  1  0  0  0  0
 13 27  1  0  0  0  0
 13 28  1  0  0  0  0
 13 29  1  0  0  0  0
 15 17  1  0  0  0  0
 15 30  1  0  0  0  0
 16 18  2  0  0  0  0
 16 31  1  0  0  0  0
 17 32  1  0  0  0  0
 18 33  1  0  0  0  0
 19 20  1  0  0  0  0
 19 34  1  0  0  0  0
 19 35  1  0  0  0  0
 20 21  1  0  0  0  0
 20 36  1  0  0  0  0
 20 37  1  0  0  0  0
 21 38  1  0  0  0  0
 21 39  1  0  0  0  0
 21 40  1  0  0  0  0
M  CHG  1  13   1
M  END
>  <$CLUSTER>
344

>  <INDEX>
221508

$$$$
EMC Microcollections 001A3586
  MOE2020           3D

 52 55  0  0  0  0  0  0  0  0999 V2000
    1.1310    0.8940   -1.4770 N   0  0  0  0  0  0  0  0  0  0  0  0
   -0.1910   -0.2350   -0.0700 C   0  0  0  0  0  0  0  0  0  0  0  0
    0.6960   -0.2060   -2.1610 C   0  0  0  0  0  0  0  0  0  0  0  0
    0.6060    0.8980   -0.2070 C   0  0  0  0  0  0  0  0  0  0  0  0
    0.9810   -0.6650   -3.5140 C   0  0  0  0  0  0  0  0  0  0  0  0
    2.1440   -0.2810   -4.1540 N   0  0  0  0  0  0  0  0  0  0  0  0
   -0.1220   -0.9230   -1.3200 C   0  0  0  0  0  0  0  0  0  0  0  0
    2.1760   -0.8110   -5.3560 C   0  0  0  0  0  0  0  0  0  0  0  0
    0.8370   -1.7880   -5.7920 S   0  0  0  0  0  0  0  0  0  0  0  0
   -0.9280   -0.5960    1.1380 C   0  0  0  0  0  0  0  0  0  0  0  0
    0.1460   -1.4860   -4.2500 C   0  0  0  0  0  0  0  0  0  0  0  0
    3.3120   -0.5810   -6.3020 C   0  0  0  0  0  0  0  0  0  0  0  0
    2.0160    1.9250   -2.0500 C   0  0  0  0  0  0  0  0  0  0  0  0
    5.4600    0.5120   -6.6950 N   0  0  0  0  0  0  0  0  0  0  0  0
    4.3800    0.2340   -5.9230 C   0  0  0  0  0  0  0  0  0  0  0  0
   -0.9050    0.0860    2.1610 O   0  0  0  0  0  0  0  0  0  0  0  0
    3.3920   -1.1410   -7.5830 C   0  0  0  0  0  0  0  0  0  0  0  0
   -1.6580   -1.7620    1.0560 N   0  0  0  0  0  0  0  0  0  0  0  0
    5.4840   -0.0530   -7.9190 C   0  0  0  0  0  0  0  0  0  0  0  0
    3.4870    1.6370   -1.8000 C   0  0  0  0  0  0  0  0  0  0  0  0
    0.9280    1.9950    0.7430 C   0  0  0  0  0  0  0  0  0  0  0  0
    6.1910    1.0930   -1.3220 C   0  0  0  0  0  0  0  0  0  0  0  0
    4.4860   -0.8770   -8.4050 C   0  0  0  0  0  0  0  0  0  0  0  0
    4.2690    1.0380   -2.7910 C   0  0  0  0  0  0  0  0  0  0  0  0
    4.0580    1.9370   -0.5560 C   0  0  0  0  0  0  0  0  0  0  0  0
    5.4100    1.6720   -0.3220 C   0  0  0  0  0  0  0  0  0  0  0  0
    5.6210    0.7730   -2.5550 C   0  0  0  0  0  0  0  0  0  0  0  0
    7.5260    0.7770   -1.2090 O   0  0  0  0  0  0  0  0  0  0  0  0
    6.7130    0.2580   -8.8040 C   0  0  0  0  0  0  0  0  0  0  0  0
    8.1560    1.0770    0.0310 C   0  0  0  0  0  0  0  0  0  0  0  0
   -0.6260   -1.8470   -1.5630 H   0  0  0  0  0  0  0  0  0  0  0  0
   -0.8000   -1.8780   -3.9060 H   0  0  0  0  0  0  0  0  0  0  0  0
    1.7670    2.8870   -1.6020 H   0  0  0  0  0  0  0  0  0  0  0  0
    1.8470    1.9710   -3.1260 H   0  0  0  0  0  0  0  0  0  0  0  0
    4.3440    0.6780   -4.9390 H   0  0  0  0  0  0  0  0  0  0  0  0
    2.5990   -1.7830   -7.9370 H   0  0  0  0  0  0  0  0  0  0  0  0
   -2.1950   -2.0790    1.8510 H   0  0  0  0  0  0  0  0  0  0  0  0
   -1.6560   -2.3000    0.2010 H   0  0  0  0  0  0  0  0  0  0  0  0
    1.5950    2.7090    0.2600 H   0  0  0  0  0  0  0  0  0  0  0  0
    1.4160    1.5800    1.6250 H   0  0  0  0  0  0  0  0  0  0  0  0
    0.0090    2.5000    1.0400 H   0  0  0  0  0  0  0  0  0  0  0  0
    4.5520   -1.3040   -9.3950 H   0  0  0  0  0  0  0  0  0  0  0  0
    3.8280    0.7790   -3.7420 H   0  0  0  0  0  0  0  0  0  0  0  0
    3.4520    2.3740    0.2240 H   0  0  0  0  0  0  0  0  0  0  0  0
    5.8500    1.9160    0.6340 H   0  0  0  0  0  0  0  0  0  0  0  0
    6.2250    0.3200   -3.3270 H   0  0  0  0  0  0  0  0  0  0  0  0
    7.3920    0.9180   -8.2640 H   0  0  0  0  0  0  0  0  0  0  0  0
    6.3860    0.7460   -9.7220 H   0  0  0  0  0  0  0  0  0  0  0  0
    7.2280   -0.6710   -9.0500 H   0  0  0  0  0  0  0  0  0  0  0  0
    9.2040    0.7790   -0.0120 H   0  0  0  0  0  0  0  0  0  0  0  0
    7.6570    0.5340    0.8330 H   0  0  0  0  0  0  0  0  0  0  0  0
    8.0900    2.1480    0.2220 H   0  0  0  0  0  0  0  0  0  0  0  0
  1  3  1  0  0  0  0
  1  4  1  0  0  0  0
  1 13  1  0  0  0  0
  2  4  2  0  0  0  0
  2  7  1  0  0  0  0
  2 10  1  0  0  0  0
  3  5  1  0  0  0  0
  3  7  2  0  0  0  0
  4 21  1  0  0  0  0
  5  6  1  0  0  0  0
  5 11  2  0  0  0  0
  6  8  2  0  0  0  0
  7 31  1  0  0  0  0
  8  9  1  0  0  0  0
  8 12  1  0  0  0  0
  9 11  1  0  0  0  0
 10 16  2  0  0  0  0
 10 18  1  0  0  0  0
 11 32  1  0  0  0  0
 12 15  2  0  0  0  0
 12 17  1  0  0  0  0
 13 20  1  0  0  0  0
 13 33  1  0  0  0  0
 13 34  1  0  0  0  0
 14 15  1  0  0  0  0
 14 19  2  0  0  0  0
 15 35  1  0  0  0  0
 17 23  2  0  0  0  0
 17 36  1  0  0  0  0
 18 37  1  0  0  0  0
 18 38  1  0  0  0  0
 19 23  1  0  0  0  0
 19 29  1  0  0  0  0
 20 24  1  0  0  0  0
 20 25  2  0  0  0  0
 21 39  1  0  0  0  0
 21 40  1  0  0  0  0
 21 41  1  0  0  0  0
 22 26  2  0  0  0  0
 22 27  1  0  0  0  0
 22 28  1  0  0  0  0
 23 42  1  0  0  0  0
 24 27  2  0  0  0  0
 24 43  1  0  0  0  0
 25 26  1  0  0  0  0
 25 44  1  0  0  0  0
 26 45  1  0  0  0  0
 27 46  1  0  0  0  0
 28 30  1  0  0  0  0
 29 47  1  0  0  0  0
 29 48  1  0  0  0  0
 29 49  1  0  0  0  0
 30 50  1  0  0  0  0
 30 51  1  0  0  0  0
 30 52  1  0  0  0  0
M  END
>  <$CLUSTER>
345

>  <INDEX>
215862

$$$$
Lithuania 1051206
  MOE2020           3D

 43 45  0  0  0  0  0  0  0  0999 V2000
   -0.5540   -1.0710   -0.0510 C   0  0  0  0  0  0  0  0  0  0  0  0
    0.1330   -0.2730   -0.9340 N   0  0  0  0  0  0  0  0  0  0  0  0
    0.7670    0.8350   -0.4070 C   0  0  0  0  0  0  0  0  0  0  0  0
    0.5490    0.8940    1.0580 C   0  0  0  0  0  0  0  0  0  0  0  0
   -0.4160   -0.4340    1.5690 S   0  0  0  0  0  0  0  0  0  0  0  0
    0.5370    2.5470    7.4530 N   0  3  0  0  0  0  0  0  0  0  0  0
   -1.1930   -2.1260   -0.4290 N   0  0  0  0  0  0  0  0  0  0  0  0
    1.0550    1.8660    1.8220 C   0  0  0  0  0  0  0  0  0  0  0  0
    0.6360    2.3670    6.0430 C   0  0  0  0  0  0  0  0  0  0  0  0
    1.4880    3.0120    8.1040 O   0  5  0  0  0  0  0  0  0  0  0  0
   -0.5460    2.2120    7.9600 O   0  0  0  0  0  0  0  0  0  0  0  0
    1.4170    1.6660   -1.0340 O   0  0  0  0  0  0  0  0  0  0  0  0
    0.9080    2.0380    3.3010 C   0  0  0  0  0  0  0  0  0  0  0  0
    0.1960   -0.5590   -2.3630 C   0  0  0  0  0  0  0  0  0  0  0  0
    1.8220    2.7220    5.4060 C   0  0  0  0  0  0  0  0  0  0  0  0
   -0.4230    1.8480    5.3010 C   0  0  0  0  0  0  0  0  0  0  0  0
   -1.9020   -2.9200    0.5830 C   0  0  0  0  0  0  0  0  0  0  0  0
    1.9520    2.5530    4.0260 C   0  0  0  0  0  0  0  0  0  0  0  0
   -0.2950    1.6780    3.9210 C   0  0  0  0  0  0  0  0  0  0  0  0
   -3.2020   -2.5890    0.8840 C   0  0  0  0  0  0  0  0  0  0  0  0
   -1.2150   -3.9160    1.2350 C   0  0  0  0  0  0  0  0  0  0  0  0
   -0.9610    0.0830   -3.1150 C   0  0  0  0  0  0  0  0  0  0  0  0
   -0.9090   -0.2190   -4.5980 C   0  0  0  0  0  0  0  0  0  0  0  0
   -1.8780   -4.6470    2.2240 C   0  0  0  0  0  0  0  0  0  0  0  0
   -3.8660   -3.3190    1.8720 C   0  0  0  0  0  0  0  0  0  0  0  0
   -3.2030   -4.3470    2.5430 C   0  0  0  0  0  0  0  0  0  0  0  0
    1.6400    2.6170    1.3110 H   0  0  0  0  0  0  0  0  0  0  0  0
    1.1340   -0.1720   -2.7600 H   0  0  0  0  0  0  0  0  0  0  0  0
    0.1580   -1.6380   -2.5100 H   0  0  0  0  0  0  0  0  0  0  0  0
    2.6420    3.1280    5.9800 H   0  0  0  0  0  0  0  0  0  0  0  0
   -1.3450    1.5770    5.7940 H   0  0  0  0  0  0  0  0  0  0  0  0
    2.8720    2.8270    3.5310 H   0  0  0  0  0  0  0  0  0  0  0  0
   -1.1120    1.2750    3.3400 H   0  0  0  0  0  0  0  0  0  0  0  0
   -3.6990   -1.7810    0.3670 H   0  0  0  0  0  0  0  0  0  0  0  0
   -0.1850   -4.1290    0.9880 H   0  0  0  0  0  0  0  0  0  0  0  0
   -1.8990   -0.2980   -2.7110 H   0  0  0  0  0  0  0  0  0  0  0  0
   -0.9170    1.1630   -2.9740 H   0  0  0  0  0  0  0  0  0  0  0  0
   -0.9530   -1.2970   -4.7510 H   0  0  0  0  0  0  0  0  0  0  0  0
    0.0200    0.1700   -5.0160 H   0  0  0  0  0  0  0  0  0  0  0  0
   -1.7570    0.2530   -5.0950 H   0  0  0  0  0  0  0  0  0  0  0  0
   -1.3650   -5.4440    2.7420 H   0  0  0  0  0  0  0  0  0  0  0  0
   -4.8920   -3.0880    2.1170 H   0  0  0  0  0  0  0  0  0  0  0  0
   -3.7150   -4.9100    3.3090 H   0  0  0  0  0  0  0  0  0  0  0  0
  1  2  1  0  0  0  0
  1  5  1  0  0  0  0
  1  7  2  0  0  0  0
  2  3  1  0  0  0  0
  2 14  1  0  0  0  0
  3  4  1  0  0  0  0
  3 12  2  0  0  0  0
  4  5  1  0  0  0  0
  4  8  2  0  0  0  0
  6  9  1  0  0  0  0
  6 10  1  0  0  0  0
  6 11  2  0  0  0  0
  7 17  1  0  0  0  0
  8 13  1  0  0  0  0
  8 27  1  0  0  0  0
  9 15  2  0  0  0  0
  9 16  1  0  0  0  0
 13 18  2  0  0  0  0
 13 19  1  0  0  0  0
 14 22  1  0  0  0  0
 14 28  1  0  0  0  0
 14 29  1  0  0  0  0
 15 18  1  0  0  0  0
 15 30  1  0  0  0  0
 16 19  2  0  0  0  0
 16 31  1  0  0  0  0
 17 20  1  0  0  0  0
 17 21  2  0  0  0  0
 18 32  1  0  0  0  0
 19 33  1  0  0  0  0
 20 25  2  0  0  0  0
 20 34  1  0  0  0  0
 21 24  1  0  0  0  0
 21 35  1  0  0  0  0
 22 23  1  0  0  0  0
 22 36  1  0  0  0  0
 22 37  1  0  0  0  0
 23 38  1  0  0  0  0
 23 39  1  0  0  0  0
 23 40  1  0  0  0  0
 24 26  2  0  0  0  0
 24 41  1  0  0  0  0
 25 26  1  0  0  0  0
 25 42  1  0  0  0  0
 26 43  1  0  0  0  0
M  CHG  1   6   1
M  CHG  1  10  -1
M  END
>  <$CLUSTER>
346

>  <INDEX>
222624

$$$$
Lithuania 1112266
  MOE2020           3D

 40 42  0  0  0  0  0  0  0  0999 V2000
   -0.9190    0.4710    0.1440 N   0  0  0  0  0  0  0  0  0  0  0  0
   -1.2300   -0.5540   -0.7160 C   0  0  0  0  0  0  0  0  0  0  0  0
    0.3580    0.4920    0.6600 C   0  0  0  0  0  0  0  0  0  0  0  0
    1.1360   -0.6600    0.1430 C   0  0  0  0  0  0  0  0  0  0  0  0
    0.1660   -1.6080   -0.9160 S   0  0  0  0  0  0  0  0  0  0  0  0
   -1.8980    1.4910    0.4880 C   0  0  0  0  0  0  0  0  0  0  0  0
    2.4080   -0.8810    0.4860 C   0  0  0  0  0  0  0  0  0  0  0  0
   -1.8350    2.6730   -0.4690 C   0  0  0  0  0  0  0  0  0  0  0  0
    5.8700   -5.1390   -1.2190 C   0  0  0  0  0  0  0  0  0  0  0  0
   -2.2930   -0.7570   -1.2900 O   0  0  0  0  0  0  0  0  0  0  0  0
    0.8120    1.3310    1.4320 O   0  0  0  0  0  0  0  0  0  0  0  0
    4.9470   -4.0720   -0.7840 C   0  0  0  0  0  0  0  0  0  0  0  0
   -2.5490    3.8710   -0.1540 C   0  0  0  0  0  0  0  0  0  0  0  0
    7.0670   -4.9800   -1.4050 O   0  0  0  0  0  0  0  0  0  0  0  0
    3.2960   -1.9990    0.0380 C   0  0  0  0  0  0  0  0  0  0  0  0
    5.4700   -2.8000   -0.5660 C   0  0  0  0  0  0  0  0  0  0  0  0
    3.5890   -4.3090   -0.5840 C   0  0  0  0  0  0  0  0  0  0  0  0
    5.2320   -6.3190   -1.3890 O   0  0  0  0  0  0  0  0  0  0  0  0
   -3.4680    4.0260    1.3040 Cl  0  0  0  0  0  0  0  0  0  0  0  0
    2.7500   -3.2710   -0.1720 C   0  0  0  0  0  0  0  0  0  0  0  0
    4.6330   -1.7620   -0.1530 C   0  0  0  0  0  0  0  0  0  0  0  0
   -1.1630    2.6460   -1.6950 C   0  0  0  0  0  0  0  0  0  0  0  0
   -2.5390    4.9690   -1.0220 C   0  0  0  0  0  0  0  0  0  0  0  0
    6.0050   -7.4330   -1.8070 C   0  0  0  0  0  0  0  0  0  0  0  0
   -1.1520    3.7420   -2.5620 C   0  0  0  0  0  0  0  0  0  0  0  0
   -1.8370    4.9050   -2.2230 C   0  0  0  0  0  0  0  0  0  0  0  0
   -2.8950    1.0530    0.4440 H   0  0  0  0  0  0  0  0  0  0  0  0
   -1.7000    1.8440    1.5000 H   0  0  0  0  0  0  0  0  0  0  0  0
    2.8480   -0.1680    1.1680 H   0  0  0  0  0  0  0  0  0  0  0  0
    6.5240   -2.6160   -0.7170 H   0  0  0  0  0  0  0  0  0  0  0  0
    3.1840   -5.2970   -0.7480 H   0  0  0  0  0  0  0  0  0  0  0  0
    1.6960   -3.4470   -0.0180 H   0  0  0  0  0  0  0  0  0  0  0  0
    5.0370   -0.7750    0.0160 H   0  0  0  0  0  0  0  0  0  0  0  0
   -0.6350    1.7480   -1.9810 H   0  0  0  0  0  0  0  0  0  0  0  0
   -3.0770    5.8680   -0.7600 H   0  0  0  0  0  0  0  0  0  0  0  0
    5.3610   -8.3070   -1.9010 H   0  0  0  0  0  0  0  0  0  0  0  0
    6.7830   -7.6320   -1.0700 H   0  0  0  0  0  0  0  0  0  0  0  0
    6.4650   -7.2150   -2.7710 H   0  0  0  0  0  0  0  0  0  0  0  0
   -0.6120    3.6860   -3.4950 H   0  0  0  0  0  0  0  0  0  0  0  0
   -1.8240    5.7550   -2.8890 H   0  0  0  0  0  0  0  0  0  0  0  0
  1  2  1  0  0  0  0
  1  3  1  0  0  0  0
  1  6  1  0  0  0  0
  2  5  1  0  0  0  0
  2 10  2  0  0  0  0
  3  4  1  0  0  0  0
  3 11  2  0  0  0  0
  4  5  1  0  0  0  0
  4  7  2  0  0  0  0
  6  8  1  0  0  0  0
  6 27  1  0  0  0  0
  6 28  1  0  0  0  0
  7 15  1  0  0  0  0
  7 29  1  0  0  0  0
  8 13  1  0  0  0  0
  8 22  2  0  0  0  0
  9 12  1  0  0  0  0
  9 14  2  0  0  0  0
  9 18  1  0  0  0  0
 12 16  1  0  0  0  0
 12 17  2  0  0  0  0
 13 19  1  0  0  0  0
 13 23  2  0  0  0  0
 15 20  2  0  0  0  0
 15 21  1  0  0  0  0
 16 21  2  0  0  0  0
 16 30  1  0  0  0  0
 17 20  1  0  0  0  0
 17 31  1  0  0  0  0
 18 24  1  0  0  0  0
 20 32  1  0  0  0  0
 21 33  1  0  0  0  0
 22 25  1  0  0  0  0
 22 34  1  0  0  0  0
 23 26  1  0  0  0  0
 23 35  1  0  0  0  0
 24 36  1  0  0  0  0
 24 37  1  0  0  0  0
 24 38  1  0  0  0  0
 25 26  2  0  0  0  0
 25 39  1  0  0  0  0
 26 40  1  0  0  0  0
M  END
>  <$CLUSTER>
347

>  <INDEX>
223224

$$$$
Labotest LT00057534
  MOE2020           3D

 39 40  0  0  0  0  0  0  0  0999 V2000
   -1.7270   -0.1590    0.3230 S   0  0  0  0  0  0  0  0  0  0  0  0
    6.6860    1.9200   -2.1470 C   0  0  0  0  0  0  0  0  0  0  0  0
    0.0040   -0.0300   -0.0060 C   0  0  0  0  0  0  0  0  0  0  0  0
   -2.4130   -0.4580   -0.9230 O   0  0  0  0  0  0  0  0  0  0  0  0
   -1.9210   -1.0130    1.4810 O   0  0  0  0  0  0  0  0  0  0  0  0
    8.0660    1.9470   -2.1640 N   0  0  0  0  0  0  0  0  0  0  0  0
   -2.1450    1.4000    0.7670 N   0  0  0  0  0  0  0  0  0  0  0  0
    6.0040    2.0930   -3.1550 O   0  0  0  0  0  0  0  0  0  0  0  0
    6.1870    1.6740   -0.8780 N   0  0  0  0  0  0  0  0  0  0  0  0
    0.4420    0.2930   -1.2940 C   0  0  0  0  0  0  0  0  0  0  0  0
    0.9250   -0.2930    1.0120 C   0  0  0  0  0  0  0  0  0  0  0  0
    8.9740    2.1600   -3.2230 C   0  0  0  0  0  0  0  0  0  0  0  0
    2.2920   -0.2180    0.7410 C   0  0  0  0  0  0  0  0  0  0  0  0
    1.8110    0.3660   -1.5580 C   0  0  0  0  0  0  0  0  0  0  0  0
    2.7330    0.1110   -0.5420 C   0  0  0  0  0  0  0  0  0  0  0  0
    4.7610    1.6070   -0.5860 C   0  0  0  0  0  0  0  0  0  0  0  0
    4.2260    0.2040   -0.8300 C   0  0  0  0  0  0  0  0  0  0  0  0
   10.3480    2.1320   -2.9380 C   0  0  0  0  0  0  0  0  0  0  0  0
    8.5640    2.3960   -4.5390 C   0  0  0  0  0  0  0  0  0  0  0  0
    9.5120    2.6010   -5.5480 C   0  0  0  0  0  0  0  0  0  0  0  0
   11.2910    2.3370   -3.9470 C   0  0  0  0  0  0  0  0  0  0  0  0
   10.8720    2.5710   -5.2530 C   0  0  0  0  0  0  0  0  0  0  0  0
    8.4990    1.7870   -1.2660 H   0  0  0  0  0  0  0  0  0  0  0  0
   -2.0200    2.0190   -0.0210 H   0  0  0  0  0  0  0  0  0  0  0  0
   -1.5560    1.7020    1.5300 H   0  0  0  0  0  0  0  0  0  0  0  0
    6.8410    1.5350   -0.1210 H   0  0  0  0  0  0  0  0  0  0  0  0
   -0.2740    0.4850   -2.0790 H   0  0  0  0  0  0  0  0  0  0  0  0
    0.5810   -0.5530    2.0020 H   0  0  0  0  0  0  0  0  0  0  0  0
    3.0090   -0.4150    1.5240 H   0  0  0  0  0  0  0  0  0  0  0  0
    2.1570    0.6200   -2.5490 H   0  0  0  0  0  0  0  0  0  0  0  0
    4.2310    2.3090   -1.2300 H   0  0  0  0  0  0  0  0  0  0  0  0
    4.5970    1.8760    0.4570 H   0  0  0  0  0  0  0  0  0  0  0  0
    4.4020   -0.0650   -1.8720 H   0  0  0  0  0  0  0  0  0  0  0  0
    4.7550   -0.4930   -0.1800 H   0  0  0  0  0  0  0  0  0  0  0  0
   10.6800    1.9500   -1.9260 H   0  0  0  0  0  0  0  0  0  0  0  0
    7.5110    2.4200   -4.7780 H   0  0  0  0  0  0  0  0  0  0  0  0
    9.1860    2.7840   -6.5610 H   0  0  0  0  0  0  0  0  0  0  0  0
   12.3450    2.3140   -3.7140 H   0  0  0  0  0  0  0  0  0  0  0  0
   11.6000    2.7290   -6.0350 H   0  0  0  0  0  0  0  0  0  0  0  0
  1  3  1  0  0  0  0
  1  4  2  0  0  0  0
  1  5  2  0  0  0  0
  1  7  1  0  0  0  0
  2  6  1  0  0  0  0
  2  8  2  0  0  0  0
  2  9  1  0  0  0  0
  3 10  1  0  0  0  0
  3 11  2  0  0  0  0
  6 12  1  0  0  0  0
  6 23  1  0  0  0  0
  7 24  1  0  0  0  0
  7 25  1  0  0  0  0
  9 16  1  0  0  0  0
  9 26  1  0  0  0  0
 10 14  2  0  0  0  0
 10 27  1  0  0  0  0
 11 13  1  0  0  0  0
 11 28  1  0  0  0  0
 12 18  1  0  0  0  0
 12 19  2  0  0  0  0
 13 15  2  0  0  0  0
 13 29  1  0  0  0  0
 14 15  1  0  0  0  0
 14 30  1  0  0  0  0
 15 17  1  0  0  0  0
 16 17  1  0  0  0  0
 16 31  1  0  0  0  0
 16 32  1  0  0  0  0
 17 33  1  0  0  0  0
 17 34  1  0  0  0  0
 18 21  2  0  0  0  0
 18 35  1  0  0  0  0
 19 20  1  0  0  0  0
 19 36  1  0  0  0  0
 20 22  2  0  0  0  0
 20 37  1  0  0  0  0
 21 22  1  0  0  0  0
 21 38  1  0  0  0  0
 22 39  1  0  0  0  0
M  END
>  <$CLUSTER>
348

>  <INDEX>
312186

$$$$
FCHC 14695
  MOE2020           3D

 52 55  0  0  0  0  0  0  0  0999 V2000
    0.7800    0.9760   -1.6640 S   0  0  0  0  0  0  0  0  0  0  0  0
   -1.3950    0.0340   -0.5770 C   0  0  0  0  0  0  0  0  0  0  0  0
   -0.7710    0.5140   -1.7950 O   0  0  0  0  0  0  0  0  0  0  0  0
   -0.2900   -0.2440    0.3950 C   0  0  0  0  0  0  0  0  0  0  0  0
    0.9340    0.1960   -0.0810 C   0  0  0  0  0  0  0  0  0  0  0  0
   -2.3420    1.1210   -0.0670 C   0  0  0  0  0  0  0  0  0  0  0  0
   -2.1700   -1.2330   -0.9450 C   0  0  0  0  0  0  0  0  0  0  0  0
    1.5890    0.1300   -2.6020 O   0  0  0  0  0  0  0  0  0  0  0  0
   -3.6280   -3.6030   -1.4880 C   0  0  0  0  0  0  0  0  0  0  0  0
   -4.2100    3.0920    0.7480 C   0  0  0  0  0  0  0  0  0  0  0  0
   -4.3630   -4.8010   -1.7750 N   0  0  0  0  0  0  0  0  0  0  0  0
   -5.1370    4.0970    1.1770 N   0  0  0  0  0  0  0  0  0  0  0  0
   -3.1680    1.8190   -1.0210 C   0  0  0  0  0  0  0  0  0  0  0  0
   -2.5270    1.4330    1.2660 C   0  0  0  0  0  0  0  0  0  0  0  0
   -2.8790   -1.9300    0.0850 C   0  0  0  0  0  0  0  0  0  0  0  0
   -2.2240   -1.7780   -2.2270 C   0  0  0  0  0  0  0  0  0  0  0  0
   -2.9420   -2.9450   -2.5040 C   0  0  0  0  0  0  0  0  0  0  0  0
   -4.0770    2.7940   -0.6050 C   0  0  0  0  0  0  0  0  0  0  0  0
   -3.4370    2.4100    1.6820 C   0  0  0  0  0  0  0  0  0  0  0  0
   -3.5970   -3.0960   -0.1930 C   0  0  0  0  0  0  0  0  0  0  0  0
   -0.3730   -0.8610    1.6380 C   0  0  0  0  0  0  0  0  0  0  0  0
    2.1030    0.0330    0.6450 C   0  0  0  0  0  0  0  0  0  0  0  0
   -5.0830   -5.4890   -0.7040 C   0  0  0  0  0  0  0  0  0  0  0  0
   -4.4570   -5.4150   -3.1010 C   0  0  0  0  0  0  0  0  0  0  0  0
   -5.9490    4.8100    0.1900 C   0  0  0  0  0  0  0  0  0  0  0  0
   -5.3500    4.4830    2.5730 C   0  0  0  0  0  0  0  0  0  0  0  0
    0.7930   -1.0340    2.3860 C   0  0  0  0  0  0  0  0  0  0  0  0
    2.0270   -0.5910    1.8910 C   0  0  0  0  0  0  0  0  0  0  0  0
   -3.0820    1.5840   -2.0720 H   0  0  0  0  0  0  0  0  0  0  0  0
   -1.9500    0.9050    2.0110 H   0  0  0  0  0  0  0  0  0  0  0  0
   -2.8590   -1.5480    1.0950 H   0  0  0  0  0  0  0  0  0  0  0  0
   -1.6960   -1.2840   -3.0290 H   0  0  0  0  0  0  0  0  0  0  0  0
   -2.9640   -3.3370   -3.5100 H   0  0  0  0  0  0  0  0  0  0  0  0
   -4.6780    3.3180   -1.3340 H   0  0  0  0  0  0  0  0  0  0  0  0
   -3.5400    2.6360    2.7330 H   0  0  0  0  0  0  0  0  0  0  0  0
   -4.1280   -3.6040    0.5980 H   0  0  0  0  0  0  0  0  0  0  0  0
   -1.3250   -1.2010    2.0190 H   0  0  0  0  0  0  0  0  0  0  0  0
    3.0490    0.3800    0.2560 H   0  0  0  0  0  0  0  0  0  0  0  0
   -4.9450   -4.9480    0.2320 H   0  0  0  0  0  0  0  0  0  0  0  0
   -4.6960   -6.5030   -0.5990 H   0  0  0  0  0  0  0  0  0  0  0  0
   -6.1450   -5.5290   -0.9470 H   0  0  0  0  0  0  0  0  0  0  0  0
   -3.8870   -4.8230   -3.8170 H   0  0  0  0  0  0  0  0  0  0  0  0
   -5.5010   -5.4530   -3.4110 H   0  0  0  0  0  0  0  0  0  0  0  0
   -4.0530   -6.4270   -3.0630 H   0  0  0  0  0  0  0  0  0  0  0  0
   -5.7100    4.4450   -0.8090 H   0  0  0  0  0  0  0  0  0  0  0  0
   -5.7360    5.8780    0.2470 H   0  0  0  0  0  0  0  0  0  0  0  0
   -7.0050    4.6380    0.3960 H   0  0  0  0  0  0  0  0  0  0  0  0
   -4.6980    3.8930    3.2170 H   0  0  0  0  0  0  0  0  0  0  0  0
   -6.3900    4.3020    2.8450 H   0  0  0  0  0  0  0  0  0  0  0  0
   -5.1210    5.5410    2.6960 H   0  0  0  0  0  0  0  0  0  0  0  0
    0.7440   -1.5130    3.3530 H   0  0  0  0  0  0  0  0  0  0  0  0
    2.9230   -0.7330    2.4760 H   0  0  0  0  0  0  0  0  0  0  0  0
  1  3  1  0  0  0  0
  1  5  1  0  0  0  0
  1  8  2  0  0  0  0
  2  3  1  0  0  0  0
  2  4  1  0  0  0  0
  2  6  1  0  0  0  0
  2  7  1  0  0  0  0
  4  5  2  0  0  0  0
  4 21  1  0  0  0  0
  5 22  1  0  0  0  0
  6 13  2  0  0  0  0
  6 14  1  0  0  0  0
  7 15  1  0  0  0  0
  7 16  2  0  0  0  0
  9 11  1  0  0  0  0
  9 17  2  0  0  0  0
  9 20  1  0  0  0  0
 10 12  1  0  0  0  0
 10 18  2  0  0  0  0
 10 19  1  0  0  0  0
 11 23  1  0  0  0  0
 11 24  1  0  0  0  0
 12 25  1  0  0  0  0
 12 26  1  0  0  0  0
 13 18  1  0  0  0  0
 13 29  1  0  0  0  0
 14 19  2  0  0  0  0
 14 30  1  0  0  0  0
 15 20  2  0  0  0  0
 15 31  1  0  0  0  0
 16 17  1  0  0  0  0
 16 32  1  0  0  0  0
 17 33  1  0  0  0  0
 18 34  1  0  0  0  0
 19 35  1  0  0  0  0
 20 36  1  0  0  0  0
 21 27  2  0  0  0  0
 21 37  1  0  0  0  0
 22 28  2  0  0  0  0
 22 38  1  0  0  0  0
 23 39  1  0  0  0  0
 23 40  1  0  0  0  0
 23 41  1  0  0  0  0
 24 42  1  0  0  0  0
 24 43  1  0  0  0  0
 24 44  1  0  0  0  0
 25 45  1  0  0  0  0
 25 46  1  0  0  0  0
 25 47  1  0  0  0  0
 26 48  1  0  0  0  0
 26 49  1  0  0  0  0
 26 50  1  0  0  0  0
 27 28  1  0  0  0  0
 27 51  1  0  0  0  0
 28 52  1  0  0  0  0
M  END
>  <$CLUSTER>
349

>  <INDEX>
225645

$$$$
Lithuania 1522224
  MOE2020           3D

 42 44  0  0  0  0  0  0  0  0999 V2000
    0.5170    1.0120    0.1900 C   0  0  0  0  0  0  0  0  0  0  0  0
   -0.1170   -0.2130   -0.0310 N   0  0  0  0  0  0  0  0  0  0  0  0
    0.0470    1.7710    1.2130 N   0  0  0  0  0  0  0  0  0  0  0  0
    1.8100    1.6340   -0.6860 S   0  0  0  0  0  0  0  0  0  0  0  0
   -1.3190   -0.6320    0.7140 C   0  0  0  0  0  0  0  0  0  0  0  0
    0.3650   -1.1860   -1.0320 C   0  0  0  0  0  0  0  0  0  0  0  0
    0.1200   -1.2870    4.1790 N   0  0  0  0  0  0  0  0  0  0  0  0
    1.3420    5.0770    2.2410 N   0  0  0  0  0  0  0  0  0  0  0  0
   -0.3350   -1.0300   -2.3750 C   0  0  0  0  0  0  0  0  0  0  0  0
   -0.9690   -1.3550    2.0070 C   0  0  0  0  0  0  0  0  0  0  0  0
    0.1860    2.9480    1.9090 C   0  0  0  0  0  0  0  0  0  0  0  0
    0.2770   -0.3200   -3.4110 C   0  0  0  0  0  0  0  0  0  0  0  0
   -0.3700   -0.1800   -4.6430 C   0  0  0  0  0  0  0  0  0  0  0  0
    0.1540    0.4700   -5.6830 F   0  0  0  0  0  0  0  0  0  0  0  0
   -0.2070   -0.7200    2.9830 C   0  0  0  0  0  0  0  0  0  0  0  0
    1.1580    3.8900    1.5860 C   0  0  0  0  0  0  0  0  0  0  0  0
   -2.2570   -1.4290   -3.7980 C   0  0  0  0  0  0  0  0  0  0  0  0
   -0.3330   -2.5500    4.3870 C   0  0  0  0  0  0  0  0  0  0  0  0
    0.5050    5.3310    3.2790 C   0  0  0  0  0  0  0  0  0  0  0  0
   -1.6130   -1.5690   -2.5660 C   0  0  0  0  0  0  0  0  0  0  0  0
   -1.4130   -2.6490    2.2560 C   0  0  0  0  0  0  0  0  0  0  0  0
   -1.6340   -0.7360   -4.8360 C   0  0  0  0  0  0  0  0  0  0  0  0
   -0.6520    3.2630    2.9900 C   0  0  0  0  0  0  0  0  0  0  0  0
   -1.0920   -3.2620    3.4680 C   0  0  0  0  0  0  0  0  0  0  0  0
   -0.4950    4.4630    3.6850 C   0  0  0  0  0  0  0  0  0  0  0  0
   -0.7170    1.2630    1.6350 H   0  0  0  0  0  0  0  0  0  0  0  0
   -1.9070   -1.3010    0.0850 H   0  0  0  0  0  0  0  0  0  0  0  0
   -1.9090    0.2520    0.9550 H   0  0  0  0  0  0  0  0  0  0  0  0
    0.1830   -2.1930   -0.6570 H   0  0  0  0  0  0  0  0  0  0  0  0
    1.4350   -1.0390   -1.1760 H   0  0  0  0  0  0  0  0  0  0  0  0
    1.2510    0.1210   -3.2600 H   0  0  0  0  0  0  0  0  0  0  0  0
    0.1460    0.2810    2.7810 H   0  0  0  0  0  0  0  0  0  0  0  0
    1.8150    3.6680    0.7580 H   0  0  0  0  0  0  0  0  0  0  0  0
   -3.2370   -1.8570   -3.9470 H   0  0  0  0  0  0  0  0  0  0  0  0
   -0.0880   -3.0290    5.3230 H   0  0  0  0  0  0  0  0  0  0  0  0
    0.6250    6.2600    3.8170 H   0  0  0  0  0  0  0  0  0  0  0  0
   -2.1020   -2.0940   -1.7590 H   0  0  0  0  0  0  0  0  0  0  0  0
   -2.0010   -3.1750    1.5180 H   0  0  0  0  0  0  0  0  0  0  0  0
   -2.1310   -0.6300   -5.7890 H   0  0  0  0  0  0  0  0  0  0  0  0
   -1.4260    2.5700    3.2870 H   0  0  0  0  0  0  0  0  0  0  0  0
   -1.4260   -4.2660    3.6860 H   0  0  0  0  0  0  0  0  0  0  0  0
   -1.1370    4.7090    4.5180 H   0  0  0  0  0  0  0  0  0  0  0  0
  1  2  1  0  0  0  0
  1  3  1  0  0  0  0
  1  4  2  0  0  0  0
  2  5  1  0  0  0  0
  2  6  1  0  0  0  0
  3 11  1  0  0  0  0
  3 26  1  0  0  0  0
  5 10  1  0  0  0  0
  5 27  1  0  0  0  0
  5 28  1  0  0  0  0
  6  9  1  0  0  0  0
  6 29  1  0  0  0  0
  6 30  1  0  0  0  0
  7 15  2  0  0  0  0
  7 18  1  0  0  0  0
  8 16  2  0  0  0  0
  8 19  1  0  0  0  0
  9 12  2  0  0  0  0
  9 20  1  0  0  0  0
 10 15  1  0  0  0  0
 10 21  2  0  0  0  0
 11 16  1  0  0  0  0
 11 23  2  0  0  0  0
 12 13  1  0  0  0  0
 12 31  1  0  0  0  0
 13 14  1  0  0  0  0
 13 22  2  0  0  0  0
 15 32  1  0  0  0  0
 16 33  1  0  0  0  0
 17 20  2  0  0  0  0
 17 22  1  0  0  0  0
 17 34  1  0  0  0  0
 18 24  2  0  0  0  0
 18 35  1  0  0  0  0
 19 25  2  0  0  0  0
 19 36  1  0  0  0  0
 20 37  1  0  0  0  0
 21 24  1  0  0  0  0
 21 38  1  0  0  0  0
 22 39  1  0  0  0  0
 23 25  1  0  0  0  0
 23 40  1  0  0  0  0
 24 41  1  0  0  0  0
 25 42  1  0  0  0  0
M  END
>  <$CLUSTER>
350

>  <INDEX>
225913

$$$$
FCHC 15290
  MOE2020           3D

 44 46  0  0  0  0  0  0  0  0999 V2000
   -0.1950    0.2170   -0.8580 C   0  0  0  0  0  0  0  0  0  0  0  0
   -0.6280    0.6100    0.4350 N   0  0  0  0  0  0  0  0  0  0  0  0
    0.5040   -1.0060   -0.6670 N   0  0  0  0  0  0  0  0  0  0  0  0
   -0.4450    0.9350   -1.9020 N   0  0  0  0  0  0  0  0  0  0  0  0
   -0.1690   -0.3030    1.3860 C   0  0  0  0  0  0  0  0  0  0  0  0
    0.5450   -1.3070    0.7030 C   0  0  0  0  0  0  0  0  0  0  0  0
   -1.4010    1.7910    0.7700 C   0  0  0  0  0  0  0  0  0  0  0  0
   -0.4840    2.9540    1.1120 C   0  0  0  0  0  0  0  0  0  0  0  0
    0.0420    0.5560   -3.2100 C   0  0  0  0  0  0  0  0  0  0  0  0
    0.4280    3.4430    0.0130 C   0  0  0  0  0  0  0  0  0  0  0  0
   -0.4820    3.4850    2.2240 O   0  0  0  0  0  0  0  0  0  0  0  0
    0.7060   -0.4710   -3.3310 O   0  0  0  0  0  0  0  0  0  0  0  0
    1.2780    4.5240    0.3280 C   0  0  0  0  0  0  0  0  0  0  0  0
    0.4560    2.8800   -1.2410 C   0  0  0  0  0  0  0  0  0  0  0  0
    1.1330   -1.8670   -1.6410 C   0  0  0  0  0  0  0  0  0  0  0  0
    2.1720    4.4480   -1.9160 C   0  0  0  0  0  0  0  0  0  0  0  0
    1.3280    3.3800   -2.2120 C   0  0  0  0  0  0  0  0  0  0  0  0
    2.1470    5.0200   -0.6450 C   0  0  0  0  0  0  0  0  0  0  0  0
   -0.3080   -0.3280    2.7610 C   0  0  0  0  0  0  0  0  0  0  0  0
    1.1370   -2.3490    1.3940 C   0  0  0  0  0  0  0  0  0  0  0  0
    3.0710    5.0260   -2.7850 O   0  0  0  0  0  0  0  0  0  0  0  0
   -0.3310    1.4740   -4.2690 C   0  0  0  0  0  0  0  0  0  0  0  0
    3.1400    4.4820   -4.0990 C   0  0  0  0  0  0  0  0  0  0  0  0
    1.0010   -2.3810    2.7850 C   0  0  0  0  0  0  0  0  0  0  0  0
    0.2840   -1.3820    3.4620 C   0  0  0  0  0  0  0  0  0  0  0  0
   -2.0360    1.5720    1.6280 H   0  0  0  0  0  0  0  0  0  0  0  0
   -2.0240    2.0650   -0.0820 H   0  0  0  0  0  0  0  0  0  0  0  0
    1.2560    4.9640    1.3140 H   0  0  0  0  0  0  0  0  0  0  0  0
   -0.1960    2.0510   -1.4760 H   0  0  0  0  0  0  0  0  0  0  0  0
    0.9850   -1.4550   -2.6390 H   0  0  0  0  0  0  0  0  0  0  0  0
    0.6880   -2.8610   -1.5880 H   0  0  0  0  0  0  0  0  0  0  0  0
    2.2000   -1.9350   -1.4300 H   0  0  0  0  0  0  0  0  0  0  0  0
    1.3480    2.9360   -3.1960 H   0  0  0  0  0  0  0  0  0  0  0  0
    2.8010    5.8480   -0.4130 H   0  0  0  0  0  0  0  0  0  0  0  0
   -0.8580    0.4440    3.2780 H   0  0  0  0  0  0  0  0  0  0  0  0
    1.6890   -3.1170    0.8730 H   0  0  0  0  0  0  0  0  0  0  0  0
   -0.9200    2.2910   -3.8510 H   0  0  0  0  0  0  0  0  0  0  0  0
   -0.9220    0.9450   -5.0170 H   0  0  0  0  0  0  0  0  0  0  0  0
    0.5690    1.8760   -4.7350 H   0  0  0  0  0  0  0  0  0  0  0  0
    3.8850    5.0270   -4.6790 H   0  0  0  0  0  0  0  0  0  0  0  0
    2.1670    4.5720   -4.5810 H   0  0  0  0  0  0  0  0  0  0  0  0
    3.4210    3.4300   -4.0430 H   0  0  0  0  0  0  0  0  0  0  0  0
    1.4540   -3.1850    3.3460 H   0  0  0  0  0  0  0  0  0  0  0  0
    0.1890   -1.4280    4.5370 H   0  0  0  0  0  0  0  0  0  0  0  0
  1  2  1  0  0  0  0
  1  3  1  0  0  0  0
  1  4  2  0  0  0  0
  2  5  1  0  0  0  0
  2  7  1  0  0  0  0
  3  6  1  0  0  0  0
  3 15  1  0  0  0  0
  4  9  1  0  0  0  0
  5  6  2  0  0  0  0
  5 19  1  0  0  0  0
  6 20  1  0  0  0  0
  7  8  1  0  0  0  0
  7 26  1  0  0  0  0
  7 27  1  0  0  0  0
  8 10  1  0  0  0  0
  8 11  2  0  0  0  0
  9 12  2  0  0  0  0
  9 22  1  0  0  0  0
 10 13  1  0  0  0  0
 10 14  2  0  0  0  0
 13 18  2  0  0  0  0
 13 28  1  0  0  0  0
 14 17  1  0  0  0  0
 14 29  1  0  0  0  0
 15 30  1  0  0  0  0
 15 31  1  0  0  0  0
 15 32  1  0  0  0  0
 16 17  2  0  0  0  0
 16 18  1  0  0  0  0
 16 21  1  0  0  0  0
 17 33  1  0  0  0  0
 18 34  1  0  0  0  0
 19 25  2  0  0  0  0
 19 35  1  0  0  0  0
 20 24  2  0  0  0  0
 20 36  1  0  0  0  0
 21 23  1  0  0  0  0
 22 37  1  0  0  0  0
 22 38  1  0  0  0  0
 22 39  1  0  0  0  0
 23 40  1  0  0  0  0
 23 41  1  0  0  0  0
 23 42  1  0  0  0  0
 24 25  1  0  0  0  0
 24 43  1  0  0  0  0
 25 44  1  0  0  0  0
M  END
>  <$CLUSTER>
351

>  <INDEX>
226113

$$$$
Chembridge 6356470
  MOE2020           3D

 40 42  0  0  0  0  0  0  0  0999 V2000
    0.2820    0.0870    0.2080 C   0  0  0  0  0  0  0  0  0  0  0  0
    1.5350   -0.4930    0.7050 C   0  0  0  0  0  0  0  0  0  0  0  0
    8.8030   -1.3730    2.3390 C   0  0  0  0  0  0  0  0  0  0  0  0
    2.6490    0.2560    0.4980 N   0  0  0  0  0  0  0  0  0  0  0  0
    8.1230   -0.3510    1.6910 N   0  0  0  0  0  0  0  0  0  0  0  0
   -0.5870   -0.6310   -0.6140 C   0  0  0  0  0  0  0  0  0  0  0  0
   -0.0490    1.3910    0.6060 C   0  0  0  0  0  0  0  0  0  0  0  0
    1.5540   -1.5730    1.2860 O   0  0  0  0  0  0  0  0  0  0  0  0
    8.3420   -2.4080    2.8100 O   0  0  0  0  0  0  0  0  0  0  0  0
   10.2800   -1.0790    2.4200 C   0  0  0  0  0  0  0  0  0  0  0  0
   -1.7860   -0.0430   -1.0370 C   0  0  0  0  0  0  0  0  0  0  0  0
    4.0010    0.0520    0.8200 C   0  0  0  0  0  0  0  0  0  0  0  0
    6.7270   -0.2660    1.4230 C   0  0  0  0  0  0  0  0  0  0  0  0
   -1.2440    1.9710    0.1810 C   0  0  0  0  0  0  0  0  0  0  0  0
   -0.2390   -2.2200   -1.1950 Cl  0  0  0  0  0  0  0  0  0  0  0  0
   -2.1130    1.2540   -0.6390 C   0  0  0  0  0  0  0  0  0  0  0  0
   -1.6930    3.6910    0.6950 Br  0  0  0  0  0  0  0  0  0  0  0  0
    6.2910    0.8730    0.7540 C   0  0  0  0  0  0  0  0  0  0  0  0
    4.9360    1.0310    0.4530 C   0  0  0  0  0  0  0  0  0  0  0  0
    5.8060   -1.2460    1.7920 C   0  0  0  0  0  0  0  0  0  0  0  0
    4.4480   -1.0900    1.4920 C   0  0  0  0  0  0  0  0  0  0  0  0
   10.9880   -1.7320    3.4750 C   0  0  0  0  0  0  0  0  0  0  0  0
   10.9750   -0.3000    1.5260 C   0  0  0  0  0  0  0  0  0  0  0  0
   12.3520   -0.1070    1.6660 C   0  0  0  0  0  0  0  0  0  0  0  0
   12.3640   -1.5350    3.6100 C   0  0  0  0  0  0  0  0  0  0  0  0
   13.0450   -0.7220    2.7070 C   0  0  0  0  0  0  0  0  0  0  0  0
    2.4710    1.1280    0.0200 H   0  0  0  0  0  0  0  0  0  0  0  0
    8.6850    0.4250    1.3720 H   0  0  0  0  0  0  0  0  0  0  0  0
    0.6230    1.9470    1.2430 H   0  0  0  0  0  0  0  0  0  0  0  0
   -2.4600   -0.5960   -1.6740 H   0  0  0  0  0  0  0  0  0  0  0  0
   -3.0400    1.7020   -0.9670 H   0  0  0  0  0  0  0  0  0  0  0  0
    7.0000    1.6350    0.4670 H   0  0  0  0  0  0  0  0  0  0  0  0
    4.6050    1.9170   -0.0680 H   0  0  0  0  0  0  0  0  0  0  0  0
    6.1430   -2.1300    2.3120 H   0  0  0  0  0  0  0  0  0  0  0  0
    3.7420   -1.8550    1.7810 H   0  0  0  0  0  0  0  0  0  0  0  0
   10.4620   -2.3750    4.1650 H   0  0  0  0  0  0  0  0  0  0  0  0
   10.4510    0.1680    0.7060 H   0  0  0  0  0  0  0  0  0  0  0  0
   12.8810    0.5210    0.9650 H   0  0  0  0  0  0  0  0  0  0  0  0
   12.9010   -2.0140    4.4160 H   0  0  0  0  0  0  0  0  0  0  0  0
   14.1090   -0.5680    2.8130 H   0  0  0  0  0  0  0  0  0  0  0  0
  1  2  1  0  0  0  0
  1  6  2  0  0  0  0
  1  7  1  0  0  0  0
  2  4  1  0  0  0  0
  2  8  2  0  0  0  0
  3  5  1  0  0  0  0
  3  9  2  0  0  0  0
  3 10  1  0  0  0  0
  4 12  1  0  0  0  0
  4 27  1  0  0  0  0
  5 13  1  0  0  0  0
  5 28  1  0  0  0  0
  6 11  1  0  0  0  0
  6 15  1  0  0  0  0
  7 14  2  0  0  0  0
  7 29  1  0  0  0  0
 10 22  1  0  0  0  0
 10 23  2  0  0  0  0
 11 16  2  0  0  0  0
 11 30  1  0  0  0  0
 12 19  2  0  0  0  0
 12 21  1  0  0  0  0
 13 18  2  0  0  0  0
 13 20  1  0  0  0  0
 14 16  1  0  0  0  0
 14 17  1  0  0  0  0
 16 31  1  0  0  0  0
 18 19  1  0  0  0  0
 18 32  1  0  0  0  0
 19 33  1  0  0  0  0
 20 21  2  0  0  0  0
 20 34  1  0  0  0  0
 21 35  1  0  0  0  0
 22 25  2  0  0  0  0
 22 36  1  0  0  0  0
 23 24  1  0  0  0  0
 23 37  1  0  0  0  0
 24 26  2  0  0  0  0
 24 38  1  0  0  0  0
 25 26  1  0  0  0  0
 25 39  1  0  0  0  0
 26 40  1  0  0  0  0
M  END
>  <$CLUSTER>
352

>  <INDEX>
61477

$$$$
InterBioScreen STOCK3S-57615
  MOE2020           3D

 41 43  0  0  1  0  0  0  0  0999 V2000
   -0.1490   -0.2590   -0.3680 N   0  0  0  0  0  0  0  0  0  0  0  0
   -0.2870   -1.6580   -0.4990 C   0  0  0  0  0  0  0  0  0  0  0  0
   -1.3960   -2.0950   -1.2020 N   0  0  0  0  0  0  0  0  0  0  0  0
   -2.3750    0.1060   -1.2580 N   0  3  3  0  0  0  0  0  0  0  0  0
   -0.9700    0.6270   -1.1990 C   0  0  0  0  0  0  0  0  0  0  0  0
   -2.3710   -1.2560   -1.8560 C   0  0  0  0  0  0  0  0  0  0  0  0
    0.7860    0.3880    0.5130 C   0  0  0  0  0  0  0  0  0  0  0  0
    0.7720   -2.8520    0.0480 S   0  0  0  0  0  0  0  0  0  0  0  0
   -3.3160    1.0400   -1.9560 C   0  0  0  0  0  0  0  0  0  0  0  0
    1.4730    1.5400    0.0950 C   0  0  0  0  0  0  0  0  0  0  0  0
    0.9960   -0.0690    1.8230 C   0  0  0  0  0  0  0  0  0  0  0  0
    1.8900    0.5850    2.6750 C   0  0  0  0  0  0  0  0  0  0  0  0
    2.3680    2.1920    0.9470 C   0  0  0  0  0  0  0  0  0  0  0  0
    2.5800    1.7120    2.2360 C   0  0  0  0  0  0  0  0  0  0  0  0
   -3.5880    2.2940   -1.1370 C   0  0  0  0  0  0  0  0  0  0  0  0
    3.5430    2.4040    3.1430 C   0  0  0  0  0  0  0  0  0  0  0  0
   -4.6310    2.3130   -0.2070 C   0  0  0  0  0  0  0  0  0  0  0  0
   -2.7560    3.4100   -1.2660 C   0  0  0  0  0  0  0  0  0  0  0  0
   -2.9880    4.5480   -0.4920 C   0  0  0  0  0  0  0  0  0  0  0  0
   -4.8600    3.4530    0.5650 C   0  0  0  0  0  0  0  0  0  0  0  0
   -4.0400    4.5700    0.4210 C   0  0  0  0  0  0  0  0  0  0  0  0
   -1.5360   -3.0930   -1.2630 H   0  0  0  0  0  0  0  0  0  0  0  0
   -2.7300    0.0430   -0.3140 H   0  0  0  0  0  0  0  0  0  0  0  0
   -0.5550    0.6660   -2.2060 H   0  0  0  0  0  0  0  0  0  0  0  0
   -0.9730    1.6280   -0.7680 H   0  0  0  0  0  0  0  0  0  0  0  0
   -3.3600   -1.7000   -1.7420 H   0  0  0  0  0  0  0  0  0  0  0  0
   -2.1260   -1.1810   -2.9160 H   0  0  0  0  0  0  0  0  0  0  0  0
   -4.2590    0.5230   -2.1310 H   0  0  0  0  0  0  0  0  0  0  0  0
   -2.8790    1.3310   -2.9110 H   0  0  0  0  0  0  0  0  0  0  0  0
    1.3070    1.9270   -0.8990 H   0  0  0  0  0  0  0  0  0  0  0  0
    0.4600   -0.9370    2.1770 H   0  0  0  0  0  0  0  0  0  0  0  0
    2.0460    0.2150    3.6780 H   0  0  0  0  0  0  0  0  0  0  0  0
    2.8960    3.0700    0.6050 H   0  0  0  0  0  0  0  0  0  0  0  0
    3.5740    1.8870    4.1020 H   0  0  0  0  0  0  0  0  0  0  0  0
    3.2220    3.4340    3.2960 H   0  0  0  0  0  0  0  0  0  0  0  0
    4.5360    2.3960    2.6930 H   0  0  0  0  0  0  0  0  0  0  0  0
   -5.2610    1.4440   -0.0850 H   0  0  0  0  0  0  0  0  0  0  0  0
   -1.9330    3.3920   -1.9650 H   0  0  0  0  0  0  0  0  0  0  0  0
   -2.3510    5.4130   -0.6010 H   0  0  0  0  0  0  0  0  0  0  0  0
   -5.6740    3.4690    1.2750 H   0  0  0  0  0  0  0  0  0  0  0  0
   -4.2200    5.4530    1.0170 H   0  0  0  0  0  0  0  0  0  0  0  0
  1  2  1  0  0  0  0
  1  5  1  0  0  0  0
  1  7  1  0  0  0  0
  2  3  1  0  0  0  0
  2  8  2  0  0  0  0
  3  6  1  0  0  0  0
  3 22  1  0  0  0  0
  4  5  1  0  0  0  0
  4  6  1  0  0  0  0
  4  9  1  0  0  0  0
  4 23  1  0  0  0  0
  5 24  1  0  0  0  0
  5 25  1  0  0  0  0
  6 26  1  0  0  0  0
  6 27  1  0  0  0  0
  7 10  1  0  0  0  0
  7 11  2  0  0  0  0
  9 15  1  0  0  0  0
  9 28  1  0  0  0  0
  9 29  1  0  0  0  0
 10 13  2  0  0  0  0
 10 30  1  0  0  0  0
 11 12  1  0  0  0  0
 11 31  1  0  0  0  0
 12 14  2  0  0  0  0
 12 32  1  0  0  0  0
 13 14  1  0  0  0  0
 13 33  1  0  0  0  0
 14 16  1  0  0  0  0
 15 17  1  0  0  0  0
 15 18  2  0  0  0  0
 16 34  1  0  0  0  0
 16 35  1  0  0  0  0
 16 36  1  0  0  0  0
 17 20  2  0  0  0  0
 17 37  1  0  0  0  0
 18 19  1  0  0  0  0
 18 38  1  0  0  0  0
 19 21  2  0  0  0  0
 19 39  1  0  0  0  0
 20 21  1  0  0  0  0
 20 40  1  0  0  0  0
 21 41  1  0  0  0  0
M  CHG  1   4   1
M  END
>  <$CLUSTER>
353

>  <INDEX>
344243

$$$$
Chembridge 5532542
  MOE2020           3D

 34 36  0  0  0  0  0  0  0  0999 V2000
    0.1830   -3.1950    2.5200 C   0  0  0  0  0  0  0  0  0  0  0  0
    0.7770   -4.3000    2.9340 N   0  0  0  0  0  0  0  0  0  0  0  0
   -1.2240   -2.7240    3.3390 S   0  0  0  0  0  0  0  0  0  0  0  0
    0.7610   -2.4100    1.3640 C   0  0  0  0  0  0  0  0  0  0  0  0
    0.1350   -1.3280    0.9970 N   0  0  0  0  0  0  0  0  0  0  0  0
    0.0510   -4.8130    3.9900 C   0  0  0  0  0  0  0  0  0  0  0  0
   -1.0680   -4.0960    4.3540 C   0  0  0  0  0  0  0  0  0  0  0  0
    2.0200   -2.9490    0.7310 C   0  0  0  0  0  0  0  0  0  0  0  0
    2.9280   -3.1930    0.1760 N   0  0  0  0  0  0  0  0  0  0  0  0
    0.6460   -0.6180   -0.0390 N   0  0  0  0  0  0  0  0  0  0  0  0
    0.0000    0.5600   -0.4700 C   0  0  0  0  0  0  0  0  0  0  0  0
   -1.2410    2.9260   -1.3830 C   0  0  0  0  0  0  0  0  0  0  0  0
   -1.1720    1.0440    0.1350 C   0  0  0  0  0  0  0  0  0  0  0  0
    0.5340    1.2900   -1.5420 C   0  0  0  0  0  0  0  0  0  0  0  0
   -0.0780    2.4630   -1.9970 C   0  0  0  0  0  0  0  0  0  0  0  0
   -1.7890    2.2160   -0.3160 C   0  0  0  0  0  0  0  0  0  0  0  0
   -1.7480    4.0830   -1.9150 O   0  0  0  0  0  0  0  0  0  0  0  0
    0.3730   -5.9990    4.7080 C   0  0  0  0  0  0  0  0  0  0  0  0
   -1.9080   -4.5050    5.4210 C   0  0  0  0  0  0  0  0  0  0  0  0
   -2.9350    4.5970   -1.3240 C   0  0  0  0  0  0  0  0  0  0  0  0
   -1.5730   -5.6730    6.1120 C   0  0  0  0  0  0  0  0  0  0  0  0
   -0.4480   -6.4120    5.7620 C   0  0  0  0  0  0  0  0  0  0  0  0
    1.4870   -0.9320   -0.5010 H   0  0  0  0  0  0  0  0  0  0  0  0
   -1.6040    0.5020    0.9630 H   0  0  0  0  0  0  0  0  0  0  0  0
    1.4340    0.9400   -2.0250 H   0  0  0  0  0  0  0  0  0  0  0  0
    0.3500    3.0100   -2.8240 H   0  0  0  0  0  0  0  0  0  0  0  0
   -2.6900    2.5710    0.1630 H   0  0  0  0  0  0  0  0  0  0  0  0
    1.2460   -6.5760    4.4410 H   0  0  0  0  0  0  0  0  0  0  0  0
   -2.7810   -3.9300    5.6920 H   0  0  0  0  0  0  0  0  0  0  0  0
   -3.2290    5.5130   -1.8370 H   0  0  0  0  0  0  0  0  0  0  0  0
   -2.7530    4.8130   -0.2710 H   0  0  0  0  0  0  0  0  0  0  0  0
   -3.7330    3.8590   -1.4110 H   0  0  0  0  0  0  0  0  0  0  0  0
   -2.1960   -6.0060    6.9290 H   0  0  0  0  0  0  0  0  0  0  0  0
   -0.2070   -7.3120    6.3080 H   0  0  0  0  0  0  0  0  0  0  0  0
  1  2  2  0  0  0  0
  1  3  1  0  0  0  0
  1  4  1  0  0  0  0
  2  6  1  0  0  0  0
  3  7  1  0  0  0  0
  4  5  2  0  0  0  0
  4  8  1  0  0  0  0
  5 10  1  0  0  0  0
  6  7  2  0  0  0  0
  6 18  1  0  0  0  0
  7 19  1  0  0  0  0
  8  9  3  0  0  0  0
 10 11  1  0  0  0  0
 10 23  1  0  0  0  0
 11 13  1  0  0  0  0
 11 14  2  0  0  0  0
 12 15  2  0  0  0  0
 12 16  1  0  0  0  0
 12 17  1  0  0  0  0
 13 16  2  0  0  0  0
 13 24  1  0  0  0  0
 14 15  1  0  0  0  0
 14 25  1  0  0  0  0
 15 26  1  0  0  0  0
 16 27  1  0  0  0  0
 17 20  1  0  0  0  0
 18 22  2  0  0  0  0
 18 28  1  0  0  0  0
 19 21  2  0  0  0  0
 19 29  1  0  0  0  0
 20 30  1  0  0  0  0
 20 31  1  0  0  0  0
 20 32  1  0  0  0  0
 21 22  1  0  0  0  0
 21 33  1  0  0  0  0
 22 34  1  0  0  0  0
M  END
>  <$CLUSTER>
354

>  <INDEX>
47969

$$$$
Lithuania 1821883
  MOE2020           3D

 53 56  0  0  1  0  0  0  0  0999 V2000
    0.5720    0.1470   -0.2120 N   0  0  0  0  0  0  0  0  0  0  0  0
    2.1600   -0.7610    1.2300 C   0  0  3  0  0  0  0  0  0  0  0  0
    2.5160    0.7000    0.9820 C   0  0  3  0  0  0  0  0  0  0  0  0
    1.8120   -0.6880    2.6770 C   0  0  0  0  0  0  0  0  0  0  0  0
    2.5010    1.2890    2.3160 N   0  0  0  0  0  0  0  0  0  0  0  0
    1.0100   -1.0530    0.3170 C   0  0  0  0  0  0  0  0  0  0  0  0
    1.3850    1.2210    0.1280 C   0  0  0  0  0  0  0  0  0  0  0  0
    1.9920    0.4490    3.2650 N   0  0  0  0  0  0  0  0  0  0  0  0
   -0.5750    0.2760   -1.0470 C   0  0  0  0  0  0  0  0  0  0  0  0
    1.2680   -1.8530    3.3970 C   0  0  0  0  0  0  0  0  0  0  0  0
   -1.8050   -0.3620   -0.7720 C   0  0  0  0  0  0  0  0  0  0  0  0
    2.9570    2.5610    2.6580 C   0  0  0  0  0  0  0  0  0  0  0  0
    1.2360    2.4020   -0.1600 O   0  0  0  0  0  0  0  0  0  0  0  0
    0.6010   -2.1860    0.1060 O   0  0  0  0  0  0  0  0  0  0  0  0
   -0.4720    1.0770   -2.2020 C   0  0  0  0  0  0  0  0  0  0  0  0
   -2.8610   -0.2410   -1.6970 C   0  0  0  0  0  0  0  0  0  0  0  0
    0.2810   -1.7800    4.1080 O   0  0  0  0  0  0  0  0  0  0  0  0
    3.6170    3.3920    1.7350 C   0  0  0  0  0  0  0  0  0  0  0  0
    2.7900    3.0700    3.9610 C   0  0  0  0  0  0  0  0  0  0  0  0
   -1.5370    1.2010   -3.0940 C   0  0  0  0  0  0  0  0  0  0  0  0
    2.0350   -2.9340    3.1640 O   0  0  0  0  0  0  0  0  0  0  0  0
   -2.7290    0.5330   -2.8480 C   0  0  0  0  0  0  0  0  0  0  0  0
    4.0780    4.6650    2.0900 C   0  0  0  0  0  0  0  0  0  0  0  0
    3.2500    4.3420    4.3200 C   0  0  0  0  0  0  0  0  0  0  0  0
    3.8940    5.1400    3.3830 C   0  0  0  0  0  0  0  0  0  0  0  0
   -2.0940   -1.1320    0.4890 C   0  0  0  0  0  0  0  0  0  0  0  0
    1.6100   -4.1510    3.8200 C   0  0  0  0  0  0  0  0  0  0  0  0
   -3.8670    0.6410   -3.8080 C   0  0  0  0  0  0  0  0  0  0  0  0
    4.3850    6.4980    3.7590 C   0  0  0  0  0  0  0  0  0  0  0  0
    2.5730   -5.2590    3.4440 C   0  0  0  0  0  0  0  0  0  0  0  0
    2.8970   -1.5410    1.0390 H   0  0  0  0  0  0  0  0  0  0  0  0
    3.4680    0.9010    0.4910 H   0  0  0  0  0  0  0  0  0  0  0  0
    0.4490    1.6050   -2.4000 H   0  0  0  0  0  0  0  0  0  0  0  0
   -3.7910   -0.7580   -1.5100 H   0  0  0  0  0  0  0  0  0  0  0  0
    3.7720    3.0390    0.7260 H   0  0  0  0  0  0  0  0  0  0  0  0
    2.2940    2.4620    4.7030 H   0  0  0  0  0  0  0  0  0  0  0  0
   -1.4340    1.8160   -3.9760 H   0  0  0  0  0  0  0  0  0  0  0  0
    4.5780    5.2800    1.3570 H   0  0  0  0  0  0  0  0  0  0  0  0
    3.1040    4.7040    5.3270 H   0  0  0  0  0  0  0  0  0  0  0  0
   -1.2020   -1.1520    1.1150 H   0  0  0  0  0  0  0  0  0  0  0  0
   -2.3820   -2.1520    0.2340 H   0  0  0  0  0  0  0  0  0  0  0  0
   -2.9080   -0.6500    1.0310 H   0  0  0  0  0  0  0  0  0  0  0  0
    0.6030   -4.4120    3.4940 H   0  0  0  0  0  0  0  0  0  0  0  0
    1.6170   -4.0080    4.9010 H   0  0  0  0  0  0  0  0  0  0  0  0
   -4.7070    0.0510   -3.4430 H   0  0  0  0  0  0  0  0  0  0  0  0
   -3.5560    0.2670   -4.7830 H   0  0  0  0  0  0  0  0  0  0  0  0
   -4.1680    1.6850   -3.8980 H   0  0  0  0  0  0  0  0  0  0  0  0
    4.8590    6.9650    2.8960 H   0  0  0  0  0  0  0  0  0  0  0  0
    5.1100    6.4110    4.5680 H   0  0  0  0  0  0  0  0  0  0  0  0
    3.5450    7.1100    4.0880 H   0  0  0  0  0  0  0  0  0  0  0  0
    2.5630   -5.3980    2.3630 H   0  0  0  0  0  0  0  0  0  0  0  0
    2.2700   -6.1850    3.9320 H   0  0  0  0  0  0  0  0  0  0  0  0
    3.5790   -4.9910    3.7660 H   0  0  0  0  0  0  0  0  0  0  0  0
  1  6  1  0  0  0  0
  1  7  1  0  0  0  0
  1  9  1  0  0  0  0
  2  3  1  0  0  0  0
  2  4  1  0  0  0  0
  2  6  1  0  0  0  0
  2 31  1  0  0  0  0
  3  5  1  0  0  0  0
  3  7  1  0  0  0  0
  3 32  1  0  0  0  0
  4  8  2  0  0  0  0
  4 10  1  0  0  0  0
  5  8  1  0  0  0  0
  5 12  1  0  0  0  0
  6 14  2  0  0  0  0
  7 13  2  0  0  0  0
  9 11  2  0  0  0  0
  9 15  1  0  0  0  0
 10 17  2  0  0  0  0
 10 21  1  0  0  0  0
 11 16  1  0  0  0  0
 11 26  1  0  0  0  0
 12 18  2  0  0  0  0
 12 19  1  0  0  0  0
 15 20  2  0  0  0  0
 15 33  1  0  0  0  0
 16 22  2  0  0  0  0
 16 34  1  0  0  0  0
 18 23  1  0  0  0  0
 18 35  1  0  0  0  0
 19 24  2  0  0  0  0
 19 36  1  0  0  0  0
 20 22  1  0  0  0  0
 20 37  1  0  0  0  0
 21 27  1  0  0  0  0
 22 28  1  0  0  0  0
 23 25  2  0  0  0  0
 23 38  1  0  0  0  0
 24 25  1  0  0  0  0
 24 39  1  0  0  0  0
 25 29  1  0  0  0  0
 26 40  1  0  0  0  0
 26 41  1  0  0  0  0
 26 42  1  0  0  0  0
 27 30  1  0  0  0  0
 27 43  1  0  0  0  0
 27 44  1  0  0  0  0
 28 45  1  0  0  0  0
 28 46  1  0  0  0  0
 28 47  1  0  0  0  0
 29 48  1  0  0  0  0
 29 49  1  0  0  0  0
 29 50  1  0  0  0  0
 30 51  1  0  0  0  0
 30 52  1  0  0  0  0
 30 53  1  0  0  0  0
M  END
>  <$CLUSTER>
355

>  <INDEX>
228021

$$$$
Lithuania 1822683
  MOE2020           3D

 51 54  0  0  1  0  0  0  0  0999 V2000
    0.4530   -0.4390    0.1640 N   0  0  0  0  0  0  0  0  0  0  0  0
    1.1190   -1.1300   -0.8420 C   0  0  0  0  0  0  0  0  0  0  0  0
    2.5670   -0.9920    1.0430 C   0  0  3  0  0  0  0  0  0  0  0  0
    4.3840    1.6020    4.7460 C   0  0  0  0  0  0  0  0  0  0  0  0
    4.9930    2.2910    3.5860 C   0  0  0  0  0  0  0  0  0  0  0  0
    3.4960    0.2040    0.8120 C   0  0  0  0  0  0  0  0  0  0  0  0
    1.1610   -0.5540    1.4230 C   0  0  0  0  0  0  0  0  0  0  0  0
    3.8760    0.7680    1.9990 N   0  0  0  0  0  0  0  0  0  0  0  0
    4.7180    1.8870    2.2610 C   0  0  0  0  0  0  0  0  0  0  0  0
    2.3390   -1.7810   -0.2360 C   0  0  0  0  0  0  0  0  0  0  0  0
    5.2340    1.3350    5.7950 N   0  0  0  0  0  0  0  0  0  0  0  0
   -0.7670    0.2770    0.0440 C   0  0  0  0  0  0  0  0  0  0  0  0
    0.8100   -1.2840   -2.0180 O   0  0  0  0  0  0  0  0  0  0  0  0
    3.1980    1.2900    4.7310 O   0  0  0  0  0  0  0  0  0  0  0  0
    3.8360    0.5910   -0.2850 O   0  0  0  0  0  0  0  0  0  0  0  0
   -1.3680    0.5150   -1.2010 C   0  0  0  0  0  0  0  0  0  0  0  0
   -1.4200    0.7730    1.1870 C   0  0  0  0  0  0  0  0  0  0  0  0
    5.0220    0.7150    7.0220 C   0  0  0  0  0  0  0  0  0  0  0  0
   -3.1970    1.7070   -0.1590 C   0  0  0  0  0  0  0  0  0  0  0  0
    4.7180   -0.5200    9.5270 C   0  0  0  0  0  0  0  0  0  0  0  0
   -2.5700    1.2230   -1.3030 C   0  0  0  0  0  0  0  0  0  0  0  0
   -2.6220    1.4800    1.0870 C   0  0  0  0  0  0  0  0  0  0  0  0
   -4.3360    2.3720   -0.3440 F   0  0  0  0  0  0  0  0  0  0  0  0
    4.6550   -1.0910   10.7290 F   0  0  0  0  0  0  0  0  0  0  0  0
    5.8280    3.3890    3.8410 C   0  0  0  0  0  0  0  0  0  0  0  0
    3.7790    0.2060    7.4150 C   0  0  0  0  0  0  0  0  0  0  0  0
    6.1090    0.5960    7.9000 C   0  0  0  0  0  0  0  0  0  0  0  0
    3.6320   -0.4080    8.6630 C   0  0  0  0  0  0  0  0  0  0  0  0
    5.9590   -0.0180    9.1450 C   0  0  0  0  0  0  0  0  0  0  0  0
    5.3130    2.6070    1.2150 C   0  0  0  0  0  0  0  0  0  0  0  0
    6.4070    4.0880    2.7850 C   0  0  0  0  0  0  0  0  0  0  0  0
    6.1510    3.6960    1.4760 C   0  0  0  0  0  0  0  0  0  0  0  0
    3.0600   -1.5710    1.8240 H   0  0  0  0  0  0  0  0  0  0  0  0
    0.6870   -1.2990    2.0630 H   0  0  0  0  0  0  0  0  0  0  0  0
    1.1850    0.4060    1.9390 H   0  0  0  0  0  0  0  0  0  0  0  0
    3.4990    0.3190    2.8220 H   0  0  0  0  0  0  0  0  0  0  0  0
    3.1970   -1.6970   -0.9030 H   0  0  0  0  0  0  0  0  0  0  0  0
    2.1510   -2.8320   -0.0170 H   0  0  0  0  0  0  0  0  0  0  0  0
    6.1840    1.6450    5.6470 H   0  0  0  0  0  0  0  0  0  0  0  0
   -0.8940    0.1450   -2.0980 H   0  0  0  0  0  0  0  0  0  0  0  0
   -0.9840    0.6040    2.1610 H   0  0  0  0  0  0  0  0  0  0  0  0
   -3.0130    1.3950   -2.2730 H   0  0  0  0  0  0  0  0  0  0  0  0
   -3.1050    1.8510    1.9790 H   0  0  0  0  0  0  0  0  0  0  0  0
    6.0220    3.6930    4.8590 H   0  0  0  0  0  0  0  0  0  0  0  0
    2.9300    0.2880    6.7520 H   0  0  0  0  0  0  0  0  0  0  0  0
    7.0740    0.9840    7.6100 H   0  0  0  0  0  0  0  0  0  0  0  0
    2.6690   -0.7980    8.9590 H   0  0  0  0  0  0  0  0  0  0  0  0
    6.8050   -0.1030    9.8110 H   0  0  0  0  0  0  0  0  0  0  0  0
    5.1210    2.3160    0.1930 H   0  0  0  0  0  0  0  0  0  0  0  0
    7.0520    4.9310    2.9820 H   0  0  0  0  0  0  0  0  0  0  0  0
    6.6020    4.2350    0.6560 H   0  0  0  0  0  0  0  0  0  0  0  0
  1  2  1  0  0  0  0
  1  7  1  0  0  0  0
  1 12  1  0  0  0  0
  2 10  1  0  0  0  0
  2 13  2  0  0  0  0
  3  6  1  0  0  0  0
  3  7  1  0  0  0  0
  3 10  1  0  0  0  0
  3 33  1  0  0  0  0
  4  5  1  0  0  0  0
  4 11  1  0  0  0  0
  4 14  2  0  0  0  0
  5  9  2  0  0  0  0
  5 25  1  0  0  0  0
  6  8  1  0  0  0  0
  6 15  2  0  0  0  0
  7 34  1  0  0  0  0
  7 35  1  0  0  0  0
  8  9  1  0  0  0  0
  8 36  1  0  0  0  0
  9 30  1  0  0  0  0
 10 37  1  0  0  0  0
 10 38  1  0  0  0  0
 11 18  1  0  0  0  0
 11 39  1  0  0  0  0
 12 16  2  0  0  0  0
 12 17  1  0  0  0  0
 16 21  1  0  0  0  0
 16 40  1  0  0  0  0
 17 22  2  0  0  0  0
 17 41  1  0  0  0  0
 18 26  2  0  0  0  0
 18 27  1  0  0  0  0
 19 21  2  0  0  0  0
 19 22  1  0  0  0  0
 19 23  1  0  0  0  0
 20 24  1  0  0  0  0
 20 28  2  0  0  0  0
 20 29  1  0  0  0  0
 21 42  1  0  0  0  0
 22 43  1  0  0  0  0
 25 31  2  0  0  0  0
 25 44  1  0  0  0  0
 26 28  1  0  0  0  0
 26 45  1  0  0  0  0
 27 29  2  0  0  0  0
 27 46  1  0  0  0  0
 28 47  1  0  0  0  0
 29 48  1  0  0  0  0
 30 32  2  0  0  0  0
 30 49  1  0  0  0  0
 31 32  1  0  0  0  0
 31 50  1  0  0  0  0
 32 51  1  0  0  0  0
M  END
>  <$CLUSTER>
356

>  <INDEX>
228408

$$$$
Akos LT-1156 X 057
  MOE2020           3D

 35 36  0  0  0  0  0  0  0  0999 V2000
    0.2410    0.5730   -0.8620 C   0  0  0  0  0  0  0  0  0  0  0  0
    1.0540   -0.1100   -1.7250 O   0  0  0  0  0  0  0  0  0  0  0  0
   -0.0360    1.8210   -1.3900 C   0  0  0  0  0  0  0  0  0  0  0  0
   -0.1400   -0.1240    0.3640 C   0  0  0  0  0  0  0  0  0  0  0  0
    1.2880    0.7000   -2.7880 C   0  0  0  0  0  0  0  0  0  0  0  0
   -0.0660   -2.0840    1.8120 C   0  0  0  0  0  0  0  0  0  0  0  0
    0.3060   -1.4280    0.6350 C   0  0  0  0  0  0  0  0  0  0  0  0
    0.6410    1.9000   -2.6310 C   0  0  0  0  0  0  0  0  0  0  0  0
   -0.8880   -1.4480    2.7370 C   0  0  0  0  0  0  0  0  0  0  0  0
   -0.9690    0.5020    1.3090 C   0  0  0  0  0  0  0  0  0  0  0  0
   -1.3400   -0.1550    2.4860 C   0  0  0  0  0  0  0  0  0  0  0  0
    0.4830   -3.6660    2.1240 Cl  0  0  0  0  0  0  0  0  0  0  0  0
   -1.1950   -2.1420    3.8330 F   0  0  0  0  0  0  0  0  0  0  0  0
    3.5940    0.1590   -3.4730 N   0  3  0  0  0  0  0  0  0  0  0  0
    2.1580    0.1480   -3.8500 C   0  0  0  0  0  0  0  0  0  0  0  0
    6.0140   -0.9090   -2.6460 O   0  0  0  0  0  0  0  0  0  0  0  0
    4.5370   -0.3730   -4.4700 C   0  0  0  0  0  0  0  0  0  0  0  0
    5.9570   -0.2990   -3.9510 C   0  0  0  0  0  0  0  0  0  0  0  0
    7.3170   -0.8730   -2.1070 C   0  0  0  0  0  0  0  0  0  0  0  0
   -0.6510    2.5880   -0.9420 H   0  0  0  0  0  0  0  0  0  0  0  0
    0.9450   -1.9310   -0.0760 H   0  0  0  0  0  0  0  0  0  0  0  0
    0.6470    2.7350   -3.3150 H   0  0  0  0  0  0  0  0  0  0  0  0
   -1.3250    1.5050    1.1240 H   0  0  0  0  0  0  0  0  0  0  0  0
   -1.9780    0.3410    3.2020 H   0  0  0  0  0  0  0  0  0  0  0  0
    3.6950   -0.3900   -2.6310 H   0  0  0  0  0  0  0  0  0  0  0  0
    3.8550    1.1160   -3.2840 H   0  0  0  0  0  0  0  0  0  0  0  0
    2.0290    0.7450   -4.7530 H   0  0  0  0  0  0  0  0  0  0  0  0
    1.8570   -0.8810   -4.0490 H   0  0  0  0  0  0  0  0  0  0  0  0
    4.4590    0.2130   -5.3860 H   0  0  0  0  0  0  0  0  0  0  0  0
    4.2860   -1.4120   -4.6820 H   0  0  0  0  0  0  0  0  0  0  0  0
    6.6230   -0.8300   -4.6320 H   0  0  0  0  0  0  0  0  0  0  0  0
    6.2660    0.7440   -3.8800 H   0  0  0  0  0  0  0  0  0  0  0  0
    7.3160   -1.3430   -1.1230 H   0  0  0  0  0  0  0  0  0  0  0  0
    7.6440    0.1630   -2.0150 H   0  0  0  0  0  0  0  0  0  0  0  0
    7.9980   -1.4110   -2.7660 H   0  0  0  0  0  0  0  0  0  0  0  0
  1  2  1  0  0  0  0
  1  3  2  0  0  0  0
  1  4  1  0  0  0  0
  2  5  1  0  0  0  0
  3  8  1  0  0  0  0
  3 20  1  0  0  0  0
  4  7  2  0  0  0  0
  4 10  1  0  0  0  0
  5  8  2  0  0  0  0
  5 15  1  0  0  0  0
  6  7  1  0  0  0  0
  6  9  2  0  0  0  0
  6 12  1  0  0  0  0
  7 21  1  0  0  0  0
  8 22  1  0  0  0  0
  9 11  1  0  0  0  0
  9 13  1  0  0  0  0
 10 11  2  0  0  0  0
 10 23  1  0  0  0  0
 11 24  1  0  0  0  0
 14 15  1  0  0  0  0
 14 17  1  0  0  0  0
 14 25  1  0  0  0  0
 14 26  1  0  0  0  0
 15 27  1  0  0  0  0
 15 28  1  0  0  0  0
 16 18  1  0  0  0  0
 16 19  1  0  0  0  0
 17 18  1  0  0  0  0
 17 29  1  0  0  0  0
 17 30  1  0  0  0  0
 18 31  1  0  0  0  0
 18 32  1  0  0  0  0
 19 33  1  0  0  0  0
 19 34  1  0  0  0  0
 19 35  1  0  0  0  0
M  CHG  1  14   1
M  END
>  <$CLUSTER>
357

>  <INDEX>
207533

$$$$
FCHC 21103
  MOE2020           3D

 40 41  0  0  1  0  0  0  0  0999 V2000
   -1.0270   -1.4350    0.1120 C   0  0  3  0  0  0  0  0  0  0  0  0
   -0.1300   -0.6300    1.0660 C   0  0  3  0  0  0  0  0  0  0  0  0
   -0.5780   -1.5750   -1.3430 C   0  0  0  0  0  0  0  0  0  0  0  0
   -1.0020   -0.1380    2.1090 O   0  0  0  0  0  0  0  0  0  0  0  0
    0.6410    0.5320    0.4750 C   0  0  0  0  0  0  0  0  0  0  0  0
   -2.3850   -0.7870    0.2960 C   0  0  0  0  0  0  0  0  0  0  0  0
   -2.3620   -0.4430    1.7700 C   0  0  0  0  0  0  0  0  0  0  0  0
    0.6880   -2.2200   -1.3850 O   0  0  0  0  0  0  0  0  0  0  0  0
   -1.5300   -2.3250   -2.0900 O   0  0  0  0  0  0  0  0  0  0  0  0
    0.0360    1.7660    0.1940 C   0  0  0  0  0  0  0  0  0  0  0  0
    2.0060    0.3770    0.1830 C   0  0  0  0  0  0  0  0  0  0  0  0
    1.3370   -2.1750   -2.6370 C   0  0  0  0  0  0  0  0  0  0  0  0
   -1.3550   -2.2990   -3.4780 C   0  0  0  0  0  0  0  0  0  0  0  0
    2.6900   -2.8490   -2.5180 C   0  0  0  0  0  0  0  0  0  0  0  0
   -2.4730   -3.0860   -4.1310 C   0  0  0  0  0  0  0  0  0  0  0  0
    2.7420    1.4230   -0.3750 C   0  0  0  0  0  0  0  0  0  0  0  0
    0.7730    2.8130   -0.3640 C   0  0  0  0  0  0  0  0  0  0  0  0
    2.1260    2.6410   -0.6490 C   0  0  0  0  0  0  0  0  0  0  0  0
   -1.0040   -2.4940    0.3700 H   0  0  0  0  0  0  0  0  0  0  0  0
    0.6560   -1.3070    1.4020 H   0  0  0  0  0  0  0  0  0  0  0  0
   -0.4980   -0.5830   -1.7870 H   0  0  0  0  0  0  0  0  0  0  0  0
   -3.1920   -1.4820    0.0620 H   0  0  0  0  0  0  0  0  0  0  0  0
   -2.4860    0.1070   -0.3190 H   0  0  0  0  0  0  0  0  0  0  0  0
   -2.9980    0.4210    1.9630 H   0  0  0  0  0  0  0  0  0  0  0  0
   -2.7130   -1.2910    2.3580 H   0  0  0  0  0  0  0  0  0  0  0  0
   -1.0120    1.9080    0.4120 H   0  0  0  0  0  0  0  0  0  0  0  0
    2.4920   -0.5640    0.3930 H   0  0  0  0  0  0  0  0  0  0  0  0
    1.4720   -1.1370   -2.9410 H   0  0  0  0  0  0  0  0  0  0  0  0
    0.7330   -2.6960   -3.3800 H   0  0  0  0  0  0  0  0  0  0  0  0
   -0.3950   -2.7470   -3.7340 H   0  0  0  0  0  0  0  0  0  0  0  0
   -1.3800   -1.2680   -3.8300 H   0  0  0  0  0  0  0  0  0  0  0  0
    3.2920   -2.3270   -1.7750 H   0  0  0  0  0  0  0  0  0  0  0  0
    3.1970   -2.8190   -3.4820 H   0  0  0  0  0  0  0  0  0  0  0  0
    2.5540   -3.8860   -2.2110 H   0  0  0  0  0  0  0  0  0  0  0  0
   -2.4460   -4.1170   -3.7770 H   0  0  0  0  0  0  0  0  0  0  0  0
   -2.3450   -3.0700   -5.2130 H   0  0  0  0  0  0  0  0  0  0  0  0
   -3.4320   -2.6380   -3.8720 H   0  0  0  0  0  0  0  0  0  0  0  0
    3.7910    1.2880   -0.5950 H   0  0  0  0  0  0  0  0  0  0  0  0
    0.2930    3.7570   -0.5750 H   0  0  0  0  0  0  0  0  0  0  0  0
    2.6950    3.4500   -1.0810 H   0  0  0  0  0  0  0  0  0  0  0  0
  1  2  1  0  0  0  0
  1  3  1  0  0  0  0
  1  6  1  0  0  0  0
  1 19  1  0  0  0  0
  2  4  1  0  0  0  0
  2  5  1  0  0  0  0
  2 20  1  0  0  0  0
  3  8  1  0  0  0  0
  3  9  1  0  0  0  0
  3 21  1  0  0  0  0
  4  7  1  0  0  0  0
  5 10  1  0  0  0  0
  5 11  2  0  0  0  0
  6  7  1  0  0  0  0
  6 22  1  0  0  0  0
  6 23  1  0  0  0  0
  7 24  1  0  0  0  0
  7 25  1  0  0  0  0
  8 12  1  0  0  0  0
  9 13  1  0  0  0  0
 10 17  2  0  0  0  0
 10 26  1  0  0  0  0
 11 16  1  0  0  0  0
 11 27  1  0  0  0  0
 12 14  1  0  0  0  0
 12 28  1  0  0  0  0
 12 29  1  0  0  0  0
 13 15  1  0  0  0  0
 13 30  1  0  0  0  0
 13 31  1  0  0  0  0
 14 32  1  0  0  0  0
 14 33  1  0  0  0  0
 14 34  1  0  0  0  0
 15 35  1  0  0  0  0
 15 36  1  0  0  0  0
 15 37  1  0  0  0  0
 16 18  2  0  0  0  0
 16 38  1  0  0  0  0
 17 18  1  0  0  0  0
 17 39  1  0  0  0  0
 18 40  1  0  0  0  0
M  END
>  <$CLUSTER>
358

>  <INDEX>
229283

$$$$
FCHC 21482
  MOE2020           3D

 47 49  0  0  1  0  0  0  0  0999 V2000
    0.1830   -3.1950    2.5200 C   0  0  0  0  0  0  0  0  0  0  0  0
    0.7610   -2.4100    1.3640 C   0  0  0  0  0  0  0  0  0  0  0  0
   -0.9830   -3.7640    2.3450 N   0  0  0  0  0  0  0  0  0  0  0  0
    0.9850   -3.3790    3.8200 C   0  0  0  0  0  0  0  0  0  0  0  0
    0.3710   -4.1510    4.7710 N   0  0  0  0  0  0  0  0  0  0  0  0
    0.1350   -1.3280    0.9970 N   0  0  0  0  0  0  0  0  0  0  0  0
    2.0200   -2.9490    0.7310 C   0  0  3  0  0  0  0  0  0  0  0  0
   -1.4850   -4.5090    3.3870 C   0  0  0  0  0  0  0  0  0  0  0  0
   -0.8570   -4.7090    4.5530 C   0  0  0  0  0  0  0  0  0  0  0  0
    0.6460   -0.6180   -0.0390 N   0  0  0  0  0  0  0  0  0  0  0  0
    2.0820   -2.8440    3.9410 O   0  0  0  0  0  0  0  0  0  0  0  0
    3.2400   -2.6080    1.5790 C   0  0  3  0  0  0  0  0  0  0  0  0
    0.0000    0.5600   -0.4700 C   0  0  0  0  0  0  0  0  0  0  0  0
    2.2340   -2.3520   -0.5770 O   0  0  0  0  0  0  0  0  0  0  0  0
    4.4070   -3.2920    1.0470 O   0  0  0  0  0  0  0  0  0  0  0  0
   -1.2410    2.9260   -1.3830 C   0  0  0  0  0  0  0  0  0  0  0  0
   -1.1720    1.0440    0.1350 C   0  0  0  0  0  0  0  0  0  0  0  0
    0.5340    1.2900   -1.5420 C   0  0  0  0  0  0  0  0  0  0  0  0
   -1.7890    2.2160   -0.3160 C   0  0  0  0  0  0  0  0  0  0  0  0
   -0.0780    2.4630   -1.9970 C   0  0  0  0  0  0  0  0  0  0  0  0
    4.6140   -0.9250    2.6240 O   0  0  0  0  0  0  0  0  0  0  0  0
    3.6220   -1.1430    1.6910 C   0  0  0  0  0  0  0  0  0  0  0  0
   -2.7790   -5.1060    3.1660 C   0  0  0  0  0  0  0  0  0  0  0  0
   -1.4370   -5.5050    5.5870 C   0  0  0  0  0  0  0  0  0  0  0  0
   -1.8950    4.1760   -1.8690 C   0  0  0  0  0  0  0  0  0  0  0  0
   -3.3590   -5.8850    4.1700 C   0  0  0  0  0  0  0  0  0  0  0  0
   -2.6890   -6.0840    5.3780 C   0  0  0  0  0  0  0  0  0  0  0  0
    0.8370   -4.3110    5.6530 H   0  0  0  0  0  0  0  0  0  0  0  0
    1.8970   -4.0290    0.6480 H   0  0  0  0  0  0  0  0  0  0  0  0
    1.4870   -0.9320   -0.5010 H   0  0  0  0  0  0  0  0  0  0  0  0
    2.9410   -2.9270    2.5780 H   0  0  0  0  0  0  0  0  0  0  0  0
    2.3360   -1.4060   -0.4510 H   0  0  0  0  0  0  0  0  0  0  0  0
    4.5780   -2.9360    0.1720 H   0  0  0  0  0  0  0  0  0  0  0  0
   -1.6040    0.5020    0.9630 H   0  0  0  0  0  0  0  0  0  0  0  0
    1.4340    0.9400   -2.0250 H   0  0  0  0  0  0  0  0  0  0  0  0
   -2.6900    2.5710    0.1630 H   0  0  0  0  0  0  0  0  0  0  0  0
    0.3500    3.0100   -2.8240 H   0  0  0  0  0  0  0  0  0  0  0  0
    4.7990    0.0170    2.6360 H   0  0  0  0  0  0  0  0  0  0  0  0
    2.7390   -0.5730    1.9800 H   0  0  0  0  0  0  0  0  0  0  0  0
    3.9750   -0.7990    0.7190 H   0  0  0  0  0  0  0  0  0  0  0  0
   -3.2960   -4.9520    2.2310 H   0  0  0  0  0  0  0  0  0  0  0  0
   -0.9130   -5.6570    6.5190 H   0  0  0  0  0  0  0  0  0  0  0  0
   -2.7840    4.3770   -1.2710 H   0  0  0  0  0  0  0  0  0  0  0  0
   -2.1800    4.0540   -2.9140 H   0  0  0  0  0  0  0  0  0  0  0  0
   -1.1990    5.0100   -1.7770 H   0  0  0  0  0  0  0  0  0  0  0  0
   -4.3280   -6.3340    4.0110 H   0  0  0  0  0  0  0  0  0  0  0  0
   -3.1400   -6.6870    6.1520 H   0  0  0  0  0  0  0  0  0  0  0  0
  1  2  1  0  0  0  0
  1  3  2  0  0  0  0
  1  4  1  0  0  0  0
  2  6  2  0  0  0  0
  2  7  1  0  0  0  0
  3  8  1  0  0  0  0
  4  5  1  0  0  0  0
  4 11  2  0  0  0  0
  5  9  1  0  0  0  0
  5 28  1  0  0  0  0
  6 10  1  0  0  0  0
  7 12  1  0  0  0  0
  7 14  1  0  0  0  0
  7 29  1  0  0  0  0
  8  9  2  0  0  0  0
  8 23  1  0  0  0  0
  9 24  1  0  0  0  0
 10 13  1  0  0  0  0
 10 30  1  0  0  0  0
 12 15  1  0  0  0  0
 12 22  1  0  0  0  0
 12 31  1  0  0  0  0
 13 17  2  0  0  0  0
 13 18  1  0  0  0  0
 14 32  1  0  0  0  0
 15 33  1  0  0  0  0
 16 19  2  0  0  0  0
 16 20  1  0  0  0  0
 16 25  1  0  0  0  0
 17 19  1  0  0  0  0
 17 34  1  0  0  0  0
 18 20  2  0  0  0  0
 18 35  1  0  0  0  0
 19 36  1  0  0  0  0
 20 37  1  0  0  0  0
 21 22  1  0  0  0  0
 21 38  1  0  0  0  0
 22 39  1  0  0  0  0
 22 40  1  0  0  0  0
 23 26  2  0  0  0  0
 23 41  1  0  0  0  0
 24 27  2  0  0  0  0
 24 42  1  0  0  0  0
 25 43  1  0  0  0  0
 25 44  1  0  0  0  0
 25 45  1  0  0  0  0
 26 27  1  0  0  0  0
 26 46  1  0  0  0  0
 27 47  1  0  0  0  0
M  END
>  <$CLUSTER>
359

>  <INDEX>
229385

$$$$
ASDI PPD69504
  MOE2020           3D

 46 49  0  0  1  0  0  0  0  0999 V2000
   -0.5680   -0.2690    0.3260 N   0  0  0  0  0  0  0  0  0  0  0  0
   -1.0260    0.6150   -0.7740 C   0  0  3  0  0  0  0  0  0  0  0  0
   -1.2470   -1.7190   -1.2040 N   0  3  0  0  0  0  0  0  0  0  0  0
   -0.8100   -1.5340    0.0300 C   0  0  0  0  0  0  0  0  0  0  0  0
   -1.2890   -0.4300   -1.9330 C   0  0  0  0  0  0  0  0  0  0  0  0
   -0.0200    0.1950    1.4860 C   0  0  0  0  0  0  0  0  0  0  0  0
    0.0290    1.6590   -1.1500 C   0  0  0  0  0  0  0  0  0  0  0  0
   -2.2560    1.2060   -0.3560 O   0  0  0  0  0  0  0  0  0  0  0  0
   -1.6300   -2.9730   -1.8520 C   0  0  0  0  0  0  0  0  0  0  0  0
   -0.5860    1.2670    2.1910 C   0  0  0  0  0  0  0  0  0  0  0  0
    1.1780   -0.3490    1.9810 C   0  0  0  0  0  0  0  0  0  0  0  0
   -0.2960    3.0270   -1.2440 C   0  0  0  0  0  0  0  0  0  0  0  0
    1.3610    1.2830   -1.4250 C   0  0  0  0  0  0  0  0  0  0  0  0
   -0.6780   -2.6910    0.9450 C   0  0  0  0  0  0  0  0  0  0  0  0
    1.1700    1.1800    3.8470 C   0  0  0  0  0  0  0  0  0  0  0  0
    1.9730    3.5770   -1.8620 C   0  0  0  0  0  0  0  0  0  0  0  0
   -0.0030    1.7510    3.3650 C   0  0  0  0  0  0  0  0  0  0  0  0
    2.3210    2.2330   -1.7760 C   0  0  0  0  0  0  0  0  0  0  0  0
    1.7650    0.1330    3.1530 C   0  0  0  0  0  0  0  0  0  0  0  0
    0.6660    3.9740   -1.5960 C   0  0  0  0  0  0  0  0  0  0  0  0
    1.9520    1.7990    5.4060 Br  0  0  0  0  0  0  0  0  0  0  0  0
    3.1550    4.7250   -2.2940 Cl  0  0  0  0  0  0  0  0  0  0  0  0
   -0.4130   -3.8850   -1.9650 C   0  0  0  0  0  0  0  0  0  0  0  0
    0.4050   -3.6610    0.4730 C   0  0  0  0  0  0  0  0  0  0  0  0
   -0.0480   -4.5890   -0.6570 C   0  0  0  0  0  0  0  0  0  0  0  0
   -0.5110   -0.3810   -2.6940 H   0  0  0  0  0  0  0  0  0  0  0  0
   -2.2620   -0.2690   -2.3970 H   0  0  0  0  0  0  0  0  0  0  0  0
   -2.8610    0.4930   -0.1390 H   0  0  0  0  0  0  0  0  0  0  0  0
   -2.0190   -2.7620   -2.8480 H   0  0  0  0  0  0  0  0  0  0  0  0
   -2.3990   -3.4670   -1.2590 H   0  0  0  0  0  0  0  0  0  0  0  0
   -1.4900    1.7270    1.8190 H   0  0  0  0  0  0  0  0  0  0  0  0
    1.6540   -1.1560    1.4440 H   0  0  0  0  0  0  0  0  0  0  0  0
   -1.3070    3.3480   -1.0400 H   0  0  0  0  0  0  0  0  0  0  0  0
    1.6420    0.2420   -1.3630 H   0  0  0  0  0  0  0  0  0  0  0  0
   -1.6310   -3.2180    0.9880 H   0  0  0  0  0  0  0  0  0  0  0  0
   -0.4190   -2.3280    1.9390 H   0  0  0  0  0  0  0  0  0  0  0  0
   -0.4640    2.5690    3.8990 H   0  0  0  0  0  0  0  0  0  0  0  0
    3.3350    1.9240   -1.9810 H   0  0  0  0  0  0  0  0  0  0  0  0
    2.6800   -0.3070    3.5200 H   0  0  0  0  0  0  0  0  0  0  0  0
    0.3960    5.0180   -1.6620 H   0  0  0  0  0  0  0  0  0  0  0  0
    0.4390   -3.2840   -2.2820 H   0  0  0  0  0  0  0  0  0  0  0  0
   -0.6210   -4.6450   -2.7180 H   0  0  0  0  0  0  0  0  0  0  0  0
    0.7100   -4.2750    1.3210 H   0  0  0  0  0  0  0  0  0  0  0  0
    1.2570   -3.0800    0.1200 H   0  0  0  0  0  0  0  0  0  0  0  0
    0.7610   -5.2890   -0.8640 H   0  0  0  0  0  0  0  0  0  0  0  0
   -0.9240   -5.1380   -0.3130 H   0  0  0  0  0  0  0  0  0  0  0  0
  1  2  1  0  0  0  0
  1  4  1  0  0  0  0
  1  6  1  0  0  0  0
  2  5  1  0  0  0  0
  2  7  1  0  0  0  0
  2  8  1  0  0  0  0
  3  4  2  0  0  0  0
  3  5  1  0  0  0  0
  3  9  1  0  0  0  0
  4 14  1  0  0  0  0
  5 26  1  0  0  0  0
  5 27  1  0  0  0  0
  6 10  2  0  0  0  0
  6 11  1  0  0  0  0
  7 12  1  0  0  0  0
  7 13  2  0  0  0  0
  8 28  1  0  0  0  0
  9 23  1  0  0  0  0
  9 29  1  0  0  0  0
  9 30  1  0  0  0  0
 10 17  1  0  0  0  0
 10 31  1  0  0  0  0
 11 19  2  0  0  0  0
 11 32  1  0  0  0  0
 12 20  2  0  0  0  0
 12 33  1  0  0  0  0
 13 18  1  0  0  0  0
 13 34  1  0  0  0  0
 14 24  1  0  0  0  0
 14 35  1  0  0  0  0
 14 36  1  0  0  0  0
 15 17  2  0  0  0  0
 15 19  1  0  0  0  0
 15 21  1  0  0  0  0
 16 18  2  0  0  0  0
 16 20  1  0  0  0  0
 16 22  1  0  0  0  0
 17 37  1  0  0  0  0
 18 38  1  0  0  0  0
 19 39  1  0  0  0  0
 20 40  1  0  0  0  0
 23 25  1  0  0  0  0
 23 41  1  0  0  0  0
 23 42  1  0  0  0  0
 24 25  1  0  0  0  0
 24 43  1  0  0  0  0
 24 44  1  0  0  0  0
 25 45  1  0  0  0  0
 25 46  1  0  0  0  0
M  CHG  1   3   1
M  END
>  <$CLUSTER>
360

>  <INDEX>
212533

$$$$
FCHC 29303
  MOE2020           3D

 40 43  0  0  0  0  0  0  0  0999 V2000
   -0.6220   -0.9820    0.1640 N   0  0  0  0  0  0  0  0  0  0  0  0
   -1.1280   -3.4150   -1.9960 N   0  0  0  0  0  0  0  0  0  0  0  0
   -0.6140   -3.2800   -0.7410 C   0  0  0  0  0  0  0  0  0  0  0  0
   -2.2090   -2.6920   -2.3920 N   0  0  0  0  0  0  0  0  0  0  0  0
    0.3570   -0.6430    1.0790 C   0  0  0  0  0  0  0  0  0  0  0  0
   -0.8490    0.0590   -0.7160 C   0  0  0  0  0  0  0  0  0  0  0  0
   -0.6990   -4.2650   -3.0350 C   0  0  0  0  0  0  0  0  0  0  0  0
   -1.3200   -2.2590    0.1330 C   0  0  0  0  0  0  0  0  0  0  0  0
    0.0010    1.1040   -0.3430 C   0  0  0  0  0  0  0  0  0  0  0  0
    0.7590    0.6620    0.7850 C   0  0  0  0  0  0  0  0  0  0  0  0
   -1.5500   -4.0430   -4.0970 C   0  0  0  0  0  0  0  0  0  0  0  0
   -2.4510   -3.0720   -3.6450 C   0  0  0  0  0  0  0  0  0  0  0  0
    0.3740   -3.9240   -0.3760 O   0  0  0  0  0  0  0  0  0  0  0  0
    0.4560   -5.1920   -2.9350 C   0  0  0  0  0  0  0  0  0  0  0  0
   -1.7250    0.1730   -1.8080 C   0  0  0  0  0  0  0  0  0  0  0  0
    0.9260   -1.3720    2.1370 C   0  0  0  0  0  0  0  0  0  0  0  0
    1.7590    1.2630    1.5810 C   0  0  0  0  0  0  0  0  0  0  0  0
   -0.0310    2.3060   -1.0830 C   0  0  0  0  0  0  0  0  0  0  0  0
   -3.5480   -2.5250   -4.4580 C   0  0  0  0  0  0  0  0  0  0  0  0
   -0.9040    2.4270   -2.1690 C   0  0  0  0  0  0  0  0  0  0  0  0
    2.3260    0.5450    2.6380 C   0  0  0  0  0  0  0  0  0  0  0  0
   -1.7380    1.3720   -2.5250 C   0  0  0  0  0  0  0  0  0  0  0  0
    1.9150   -0.7550    2.9100 C   0  0  0  0  0  0  0  0  0  0  0  0
   -2.3250   -2.1000   -0.2560 H   0  0  0  0  0  0  0  0  0  0  0  0
   -1.3810   -2.6500    1.1490 H   0  0  0  0  0  0  0  0  0  0  0  0
   -1.5260   -4.5160   -5.0680 H   0  0  0  0  0  0  0  0  0  0  0  0
    0.9040   -5.1080   -1.9450 H   0  0  0  0  0  0  0  0  0  0  0  0
    1.1960   -4.9330   -3.6920 H   0  0  0  0  0  0  0  0  0  0  0  0
    0.1160   -6.2150   -3.0940 H   0  0  0  0  0  0  0  0  0  0  0  0
   -2.3720   -0.6460   -2.0860 H   0  0  0  0  0  0  0  0  0  0  0  0
    0.6080   -2.3820    2.3480 H   0  0  0  0  0  0  0  0  0  0  0  0
    2.0840    2.2720    1.3740 H   0  0  0  0  0  0  0  0  0  0  0  0
    0.6150    3.1280   -0.8120 H   0  0  0  0  0  0  0  0  0  0  0  0
   -4.1000   -1.7880   -3.8750 H   0  0  0  0  0  0  0  0  0  0  0  0
   -4.2190   -3.3320   -4.7520 H   0  0  0  0  0  0  0  0  0  0  0  0
   -3.1380   -2.0500   -5.3490 H   0  0  0  0  0  0  0  0  0  0  0  0
   -0.9310    3.3460   -2.7350 H   0  0  0  0  0  0  0  0  0  0  0  0
    3.0900    1.0040    3.2480 H   0  0  0  0  0  0  0  0  0  0  0  0
   -2.4050    1.4810   -3.3670 H   0  0  0  0  0  0  0  0  0  0  0  0
    2.3650   -1.2960    3.7290 H   0  0  0  0  0  0  0  0  0  0  0  0
  1  5  1  0  0  0  0
  1  6  1  0  0  0  0
  1  8  1  0  0  0  0
  2  3  1  0  0  0  0
  2  4  1  0  0  0  0
  2  7  1  0  0  0  0
  3  8  1  0  0  0  0
  3 13  2  0  0  0  0
  4 12  2  0  0  0  0
  5 10  2  0  0  0  0
  5 16  1  0  0  0  0
  6  9  2  0  0  0  0
  6 15  1  0  0  0  0
  7 11  2  0  0  0  0
  7 14  1  0  0  0  0
  8 24  1  0  0  0  0
  8 25  1  0  0  0  0
  9 10  1  0  0  0  0
  9 18  1  0  0  0  0
 10 17  1  0  0  0  0
 11 12  1  0  0  0  0
 11 26  1  0  0  0  0
 12 19  1  0  0  0  0
 14 27  1  0  0  0  0
 14 28  1  0  0  0  0
 14 29  1  0  0  0  0
 15 22  2  0  0  0  0
 15 30  1  0  0  0  0
 16 23  2  0  0  0  0
 16 31  1  0  0  0  0
 17 21  2  0  0  0  0
 17 32  1  0  0  0  0
 18 20  2  0  0  0  0
 18 33  1  0  0  0  0
 19 34  1  0  0  0  0
 19 35  1  0  0  0  0
 19 36  1  0  0  0  0
 20 22  1  0  0  0  0
 20 37  1  0  0  0  0
 21 23  1  0  0  0  0
 21 38  1  0  0  0  0
 22 39  1  0  0  0  0
 23 40  1  0  0  0  0
M  END
>  <$CLUSTER>
361

>  <INDEX>
231688

$$$$
Lithuania 2944789
  MOE2020           3D

 46 48  0  0  0  0  0  0  0  0999 V2000
   -0.4190    0.1370    0.3690 N   0  0  0  0  0  0  0  0  0  0  0  0
   -1.4370   -0.5710   -0.2680 C   0  0  0  0  0  0  0  0  0  0  0  0
   -2.5990   -0.8140    0.2550 N   0  0  0  0  0  0  0  0  0  0  0  0
   -0.6740    0.7100    1.6180 C   0  0  0  0  0  0  0  0  0  0  0  0
   -1.9880    0.4140    2.2000 C   0  0  0  0  0  0  0  0  0  0  0  0
   -2.8390   -0.3310    1.5050 C   0  0  0  0  0  0  0  0  0  0  0  0
   -1.2270   -1.0830   -1.9430 S   0  0  0  0  0  0  0  0  0  0  0  0
    0.8930    0.3030   -0.1790 C   0  0  0  0  0  0  0  0  0  0  0  0
    0.1000    1.3930    2.2870 O   0  0  0  0  0  0  0  0  0  0  0  0
   -3.6210   -2.4900   -1.7810 C   0  0  0  0  0  0  0  0  0  0  0  0
   -4.0880   -2.5610   -0.5140 N   0  0  0  0  0  0  0  0  0  0  0  0
   -4.1010   -0.6390    1.9700 O   0  0  0  0  0  0  0  0  0  0  0  0
   -4.3340   -2.2190   -2.7410 O   0  0  0  0  0  0  0  0  0  0  0  0
   -2.1110   -2.6590   -1.9030 C   0  0  0  0  0  0  0  0  0  0  0  0
    1.6460   -0.8090   -0.5900 C   0  0  0  0  0  0  0  0  0  0  0  0
    1.4730    1.5790   -0.2640 C   0  0  0  0  0  0  0  0  0  0  0  0
   -2.3190    0.9620    3.5860 C   0  0  0  0  0  0  0  0  0  0  0  0
   -5.3820   -2.4550    0.0210 C   0  0  0  0  0  0  0  0  0  0  0  0
    3.4880    0.6320   -1.2030 C   0  0  0  0  0  0  0  0  0  0  0  0
   -7.9360   -2.2420    1.1720 C   0  0  0  0  0  0  0  0  0  0  0  0
    2.9340   -0.6430   -1.1040 C   0  0  0  0  0  0  0  0  0  0  0  0
    2.7600    1.7410   -0.7800 C   0  0  0  0  0  0  0  0  0  0  0  0
   -9.1130   -2.1560    1.7930 F   0  0  0  0  0  0  0  0  0  0  0  0
    4.7180    0.7020   -1.7130 F   0  0  0  0  0  0  0  0  0  0  0  0
   -6.4990   -2.1850   -0.7770 C   0  0  0  0  0  0  0  0  0  0  0  0
   -5.5630   -2.6170    1.4030 C   0  0  0  0  0  0  0  0  0  0  0  0
   -7.7690   -2.0800   -0.2000 C   0  0  0  0  0  0  0  0  0  0  0  0
   -6.8320   -2.5120    1.9760 C   0  0  0  0  0  0  0  0  0  0  0  0
   -2.7490    2.4230    3.5480 C   0  0  0  0  0  0  0  0  0  0  0  0
   -3.3700   -2.7200    0.1790 H   0  0  0  0  0  0  0  0  0  0  0  0
   -4.3160   -0.2750    2.8320 H   0  0  0  0  0  0  0  0  0  0  0  0
   -1.7560   -3.2350   -1.0490 H   0  0  0  0  0  0  0  0  0  0  0  0
   -1.8950   -3.2020   -2.8230 H   0  0  0  0  0  0  0  0  0  0  0  0
    1.2260   -1.8000   -0.5080 H   0  0  0  0  0  0  0  0  0  0  0  0
    0.9190    2.4430    0.0730 H   0  0  0  0  0  0  0  0  0  0  0  0
   -1.4350    0.8740    4.2170 H   0  0  0  0  0  0  0  0  0  0  0  0
   -3.1290    0.3700    4.0120 H   0  0  0  0  0  0  0  0  0  0  0  0
    3.5010   -1.5040   -1.4250 H   0  0  0  0  0  0  0  0  0  0  0  0
    3.1920    2.7280   -0.8510 H   0  0  0  0  0  0  0  0  0  0  0  0
   -6.3800   -2.0570   -1.8430 H   0  0  0  0  0  0  0  0  0  0  0  0
   -4.7100   -2.8260    2.0320 H   0  0  0  0  0  0  0  0  0  0  0  0
   -8.6260   -1.8720   -0.8240 H   0  0  0  0  0  0  0  0  0  0  0  0
   -6.9570   -2.6400    3.0410 H   0  0  0  0  0  0  0  0  0  0  0  0
   -1.9470    3.0270    3.1240 H   0  0  0  0  0  0  0  0  0  0  0  0
   -2.9650    2.7650    4.5600 H   0  0  0  0  0  0  0  0  0  0  0  0
   -3.6430    2.5230    2.9330 H   0  0  0  0  0  0  0  0  0  0  0  0
  1  2  1  0  0  0  0
  1  4  1  0  0  0  0
  1  8  1  0  0  0  0
  2  3  2  0  0  0  0
  2  7  1  0  0  0  0
  3  6  1  0  0  0  0
  4  5  1  0  0  0  0
  4  9  2  0  0  0  0
  5  6  2  0  0  0  0
  5 17  1  0  0  0  0
  6 12  1  0  0  0  0
  7 14  1  0  0  0  0
  8 15  2  0  0  0  0
  8 16  1  0  0  0  0
 10 11  1  0  0  0  0
 10 13  2  0  0  0  0
 10 14  1  0  0  0  0
 11 18  1  0  0  0  0
 11 30  1  0  0  0  0
 12 31  1  0  0  0  0
 14 32  1  0  0  0  0
 14 33  1  0  0  0  0
 15 21  1  0  0  0  0
 15 34  1  0  0  0  0
 16 22  2  0  0  0  0
 16 35  1  0  0  0  0
 17 29  1  0  0  0  0
 17 36  1  0  0  0  0
 17 37  1  0  0  0  0
 18 25  2  0  0  0  0
 18 26  1  0  0  0  0
 19 21  2  0  0  0  0
 19 22  1  0  0  0  0
 19 24  1  0  0  0  0
 20 23  1  0  0  0  0
 20 27  2  0  0  0  0
 20 28  1  0  0  0  0
 21 38  1  0  0  0  0
 22 39  1  0  0  0  0
 25 27  1  0  0  0  0
 25 40  1  0  0  0  0
 26 28  2  0  0  0  0
 26 41  1  0  0  0  0
 27 42  1  0  0  0  0
 28 43  1  0  0  0  0
 29 44  1  0  0  0  0
 29 45  1  0  0  0  0
 29 46  1  0  0  0  0
M  END
>  <$CLUSTER>
362

>  <INDEX>
231899

$$$$
Chembridge 7919494
  MOE2020           3D

 39 41  0  0  0  0  0  0  0  0999 V2000
   -1.4160    0.2770   -0.3740 N   0  0  0  0  0  0  0  0  0  0  0  0
   -1.7630    0.4390    0.9340 C   0  0  0  0  0  0  0  0  0  0  0  0
   -0.7100    0.2520    1.6990 N   0  0  0  0  0  0  0  0  0  0  0  0
   -0.0860   -0.0200   -0.3600 C   0  0  0  0  0  0  0  0  0  0  0  0
    0.3590   -0.0400    0.8750 N   0  0  0  0  0  0  0  0  0  0  0  0
    2.7300   -6.6360    2.3460 C   0  0  0  0  0  0  0  0  0  0  0  0
    2.5740   -5.1700    2.6260 C   0  0  0  0  0  0  0  0  0  0  0  0
    2.5310   -1.9790   -0.4870 C   0  0  0  0  0  0  0  0  0  0  0  0
    2.3940   -1.8970    0.8570 N   0  0  0  0  0  0  0  0  0  0  0  0
    0.7660   -0.3060   -1.8290 S   0  0  0  0  0  0  0  0  0  0  0  0
   -3.0540    0.7680    1.4240 C   0  0  0  0  0  0  0  0  0  0  0  0
    2.5640   -4.2320    1.5870 C   0  0  0  0  0  0  0  0  0  0  0  0
    2.4180   -2.8710    1.8680 C   0  0  0  0  0  0  0  0  0  0  0  0
    2.6390   -3.0450   -1.0820 O   0  0  0  0  0  0  0  0  0  0  0  0
    1.6600   -7.3340    2.8170 F   0  0  0  0  0  0  0  0  0  0  0  0
    3.8290   -7.1340    2.9750 F   0  0  0  0  0  0  0  0  0  0  0  0
    2.8560   -6.9660    1.0300 F   0  0  0  0  0  0  0  0  0  0  0  0
    2.4300   -0.6390   -1.2100 C   0  0  0  0  0  0  0  0  0  0  0  0
    2.4410   -4.7580    3.9500 C   0  0  0  0  0  0  0  0  0  0  0  0
    2.2950   -3.4040    4.2390 C   0  0  0  0  0  0  0  0  0  0  0  0
    2.2840   -2.4670    3.2050 C   0  0  0  0  0  0  0  0  0  0  0  0
   -4.1880    0.6380    0.6170 C   0  0  0  0  0  0  0  0  0  0  0  0
   -3.1960    1.2240    2.7410 C   0  0  0  0  0  0  0  0  0  0  0  0
   -5.4500    0.9690    1.1200 C   0  0  0  0  0  0  0  0  0  0  0  0
   -4.4580    1.5540    3.2420 C   0  0  0  0  0  0  0  0  0  0  0  0
   -5.5860    1.4280    2.4300 C   0  0  0  0  0  0  0  0  0  0  0  0
   -2.0170    0.3590   -1.1820 H   0  0  0  0  0  0  0  0  0  0  0  0
    2.2470   -0.9570    1.1970 H   0  0  0  0  0  0  0  0  0  0  0  0
    2.6700   -4.5620    0.5640 H   0  0  0  0  0  0  0  0  0  0  0  0
    3.1210   -0.6440   -2.0530 H   0  0  0  0  0  0  0  0  0  0  0  0
    2.7090    0.1540   -0.5160 H   0  0  0  0  0  0  0  0  0  0  0  0
    2.4510   -5.4850    4.7480 H   0  0  0  0  0  0  0  0  0  0  0  0
    2.1900   -3.0790    5.2640 H   0  0  0  0  0  0  0  0  0  0  0  0
    2.1710   -1.4180    3.4370 H   0  0  0  0  0  0  0  0  0  0  0  0
   -4.0890    0.2810   -0.3970 H   0  0  0  0  0  0  0  0  0  0  0  0
   -2.3250    1.3210    3.3730 H   0  0  0  0  0  0  0  0  0  0  0  0
   -6.3230    0.8690    0.4920 H   0  0  0  0  0  0  0  0  0  0  0  0
   -4.5600    1.9070    4.2580 H   0  0  0  0  0  0  0  0  0  0  0  0
   -6.5620    1.6850    2.8150 H   0  0  0  0  0  0  0  0  0  0  0  0
  1  2  1  0  0  0  0
  1  4  1  0  0  0  0
  1 27  1  0  0  0  0
  2  3  2  0  0  0  0
  2 11  1  0  0  0  0
  3  5  1  0  0  0  0
  4  5  2  0  0  0  0
  4 10  1  0  0  0  0
  6  7  1  0  0  0  0
  6 15  1  0  0  0  0
  6 16  1  0  0  0  0
  6 17  1  0  0  0  0
  7 12  2  0  0  0  0
  7 19  1  0  0  0  0
  8  9  1  0  0  0  0
  8 14  2  0  0  0  0
  8 18  1  0  0  0  0
  9 13  1  0  0  0  0
  9 28  1  0  0  0  0
 10 18  1  0  0  0  0
 11 22  2  0  0  0  0
 11 23  1  0  0  0  0
 12 13  1  0  0  0  0
 12 29  1  0  0  0  0
 13 21  2  0  0  0  0
 18 30  1  0  0  0  0
 18 31  1  0  0  0  0
 19 20  2  0  0  0  0
 19 32  1  0  0  0  0
 20 21  1  0  0  0  0
 20 33  1  0  0  0  0
 21 34  1  0  0  0  0
 22 24  1  0  0  0  0
 22 35  1  0  0  0  0
 23 25  2  0  0  0  0
 23 36  1  0  0  0  0
 24 26  2  0  0  0  0
 24 37  1  0  0  0  0
 25 26  1  0  0  0  0
 25 38  1  0  0  0  0
 26 39  1  0  0  0  0
M  END
>  <$CLUSTER>
363

>  <INDEX>
90860

$$$$
FCHC 1801
  MOE2020           3D

 39 41  0  0  0  0  0  0  0  0999 V2000
   -1.7650   -1.7010   -1.1070 N   0  3  0  0  0  0  0  0  0  0  0  0
   -1.6760   -0.7550    0.0280 C   0  0  0  0  0  0  0  0  0  0  0  0
   -0.3360   -0.0290    0.0110 C   0  0  0  0  0  0  0  0  0  0  0  0
   -1.9590   -1.5170    1.3310 C   0  0  0  0  0  0  0  0  0  0  0  0
   -2.3850   -4.1490   -2.5810 O   0  0  0  0  0  0  0  0  0  0  0  0
   -0.8820   -2.9310   -1.1080 C   0  0  0  0  0  0  0  0  0  0  0  0
   -3.1830   -2.0880   -1.5210 C   0  0  0  0  0  0  0  0  0  0  0  0
   -1.0130   -3.7750   -2.3340 C   0  0  0  0  0  0  0  0  0  0  0  0
   -3.2200   -2.9820   -2.7480 C   0  0  0  0  0  0  0  0  0  0  0  0
   -3.2110   -1.3870    1.9640 C   0  0  0  0  0  0  0  0  0  0  0  0
   -0.2690    1.3010   -0.4410 C   0  0  0  0  0  0  0  0  0  0  0  0
    0.8620   -0.6570    0.4000 C   0  0  0  0  0  0  0  0  0  0  0  0
   -1.0050   -2.3630    1.9260 C   0  0  0  0  0  0  0  0  0  0  0  0
    2.0770    0.0280    0.3530 C   0  0  0  0  0  0  0  0  0  0  0  0
   -1.2920   -3.0490    3.1070 C   0  0  0  0  0  0  0  0  0  0  0  0
   -3.4950   -2.0740    3.1440 C   0  0  0  0  0  0  0  0  0  0  0  0
    0.9470    1.9830   -0.4870 C   0  0  0  0  0  0  0  0  0  0  0  0
    2.1200    1.3470   -0.0880 C   0  0  0  0  0  0  0  0  0  0  0  0
   -2.5340   -2.9050    3.7170 C   0  0  0  0  0  0  0  0  0  0  0  0
   -1.3610   -1.0970   -1.8080 H   0  0  0  0  0  0  0  0  0  0  0  0
   -2.4300    0.0280   -0.0560 H   0  0  0  0  0  0  0  0  0  0  0  0
   -1.1430   -3.5410   -0.2430 H   0  0  0  0  0  0  0  0  0  0  0  0
    0.1560   -2.6080   -1.0240 H   0  0  0  0  0  0  0  0  0  0  0  0
   -3.7420   -1.1780   -1.7370 H   0  0  0  0  0  0  0  0  0  0  0  0
   -3.6550   -2.6160   -0.6920 H   0  0  0  0  0  0  0  0  0  0  0  0
   -0.6400   -3.2140   -3.1910 H   0  0  0  0  0  0  0  0  0  0  0  0
   -0.4180   -4.6790   -2.2050 H   0  0  0  0  0  0  0  0  0  0  0  0
   -4.2470   -3.3040   -2.9200 H   0  0  0  0  0  0  0  0  0  0  0  0
   -2.8670   -2.4150   -3.6100 H   0  0  0  0  0  0  0  0  0  0  0  0
   -3.9630   -0.7450    1.5290 H   0  0  0  0  0  0  0  0  0  0  0  0
   -1.1720    1.8020   -0.7570 H   0  0  0  0  0  0  0  0  0  0  0  0
    0.8410   -1.6820    0.7390 H   0  0  0  0  0  0  0  0  0  0  0  0
   -0.0370   -2.4830    1.4620 H   0  0  0  0  0  0  0  0  0  0  0  0
    2.9860   -0.4670    0.6600 H   0  0  0  0  0  0  0  0  0  0  0  0
   -0.5470   -3.6940    3.5490 H   0  0  0  0  0  0  0  0  0  0  0  0
   -4.4610   -1.9620    3.6140 H   0  0  0  0  0  0  0  0  0  0  0  0
    0.9790    3.0060   -0.8330 H   0  0  0  0  0  0  0  0  0  0  0  0
    3.0610    1.8760   -0.1210 H   0  0  0  0  0  0  0  0  0  0  0  0
   -2.7530   -3.4360    4.6320 H   0  0  0  0  0  0  0  0  0  0  0  0
  1  2  1  0  0  0  0
  1  6  1  0  0  0  0
  1  7  1  0  0  0  0
  1 20  1  0  0  0  0
  2  3  1  0  0  0  0
  2  4  1  0  0  0  0
  2 21  1  0  0  0  0
  3 11  1  0  0  0  0
  3 12  2  0  0  0  0
  4 10  1  0  0  0  0
  4 13  2  0  0  0  0
  5  8  1  0  0  0  0
  5  9  1  0  0  0  0
  6  8  1  0  0  0  0
  6 22  1  0  0  0  0
  6 23  1  0  0  0  0
  7  9  1  0  0  0  0
  7 24  1  0  0  0  0
  7 25  1  0  0  0  0
  8 26  1  0  0  0  0
  8 27  1  0  0  0  0
  9 28  1  0  0  0  0
  9 29  1  0  0  0  0
 10 16  2  0  0  0  0
 10 30  1  0  0  0  0
 11 17  2  0  0  0  0
 11 31  1  0  0  0  0
 12 14  1  0  0  0  0
 12 32  1  0  0  0  0
 13 15  1  0  0  0  0
 13 33  1  0  0  0  0
 14 18  2  0  0  0  0
 14 34  1  0  0  0  0
 15 19  2  0  0  0  0
 15 35  1  0  0  0  0
 16 19  1  0  0  0  0
 16 36  1  0  0  0  0
 17 18  1  0  0  0  0
 17 37  1  0  0  0  0
 18 38  1  0  0  0  0
 19 39  1  0  0  0  0
M  CHG  1   1   1
M  END
>  <$CLUSTER>
364

>  <INDEX>
227549

$$$$
FCHC 34829
  MOE2020           3D

 53 56  0  0  0  0  0  0  0  0999 V2000
    0.5590   -0.4960   -1.1520 C   0  0  0  0  0  0  0  0  0  0  0  0
   -0.7330   -0.1790   -0.8060 N   0  0  0  0  0  0  0  0  0  0  0  0
    1.4120   -0.1770   -0.2040 N   0  0  0  0  0  0  0  0  0  0  0  0
    0.6520    0.3610    0.8050 C   0  0  0  0  0  0  0  0  0  0  0  0
   -0.6970    0.3700    0.4600 C   0  0  0  0  0  0  0  0  0  0  0  0
    1.0520    0.8630    2.0550 C   0  0  0  0  0  0  0  0  0  0  0  0
   -1.9420   -0.3670   -1.5920 C   0  0  0  0  0  0  0  0  0  0  0  0
   -1.6880    0.8600    1.3190 C   0  0  0  0  0  0  0  0  0  0  0  0
    2.6540   -2.1280   -0.1230 N   0  3  0  0  0  0  0  0  0  0  0  0
    0.9760   -1.2400   -2.6670 S   0  0  0  0  0  0  0  0  0  0  0  0
    2.8460   -1.8180    2.7640 O   0  0  0  0  0  0  0  0  0  0  0  0
    0.0730    1.3580    2.9240 C   0  0  0  0  0  0  0  0  0  0  0  0
   -1.2740    1.3550    2.5600 C   0  0  0  0  0  0  0  0  0  0  0  0
   -2.5910   -1.7180   -1.3430 C   0  0  0  0  0  0  0  0  0  0  0  0
    2.7670   -1.4000   -2.5060 C   0  0  0  0  0  0  0  0  0  0  0  0
    3.1700   -2.4550   -1.4790 C   0  0  0  0  0  0  0  0  0  0  0  0
    0.5770    1.8250    4.1270 O   0  0  0  0  0  0  0  0  0  0  0  0
    2.7180   -3.3200    0.8030 C   0  0  0  0  0  0  0  0  0  0  0  0
    3.3120   -0.9290    0.5200 C   0  0  0  0  0  0  0  0  0  0  0  0
    2.1550   -2.9540    2.2000 C   0  0  0  0  0  0  0  0  0  0  0  0
    2.7290   -0.6600    1.9080 C   0  0  0  0  0  0  0  0  0  0  0  0
   -3.6730   -1.8360   -0.4620 C   0  0  0  0  0  0  0  0  0  0  0  0
   -2.0900   -2.8680   -1.9710 C   0  0  0  0  0  0  0  0  0  0  0  0
   -0.3600    2.3450    5.0640 C   0  0  0  0  0  0  0  0  0  0  0  0
   -2.6830   -4.1120   -1.7420 C   0  0  0  0  0  0  0  0  0  0  0  0
   -4.2640   -3.0830   -0.2330 C   0  0  0  0  0  0  0  0  0  0  0  0
   -3.7710   -4.2190   -0.8750 C   0  0  0  0  0  0  0  0  0  0  0  0
    2.0940    0.8670    2.3390 H   0  0  0  0  0  0  0  0  0  0  0  0
   -1.6880   -0.2900   -2.6490 H   0  0  0  0  0  0  0  0  0  0  0  0
   -2.6540    0.4160   -1.3320 H   0  0  0  0  0  0  0  0  0  0  0  0
   -2.7300    0.8560    1.0350 H   0  0  0  0  0  0  0  0  0  0  0  0
    1.6870   -1.8750   -0.2710 H   0  0  0  0  0  0  0  0  0  0  0  0
   -2.0100    1.7420    3.2490 H   0  0  0  0  0  0  0  0  0  0  0  0
    3.1780   -0.4380   -2.1990 H   0  0  0  0  0  0  0  0  0  0  0  0
    3.1810   -1.6790   -3.4750 H   0  0  0  0  0  0  0  0  0  0  0  0
    2.7670   -3.4200   -1.7870 H   0  0  0  0  0  0  0  0  0  0  0  0
    4.2580   -2.5120   -1.4390 H   0  0  0  0  0  0  0  0  0  0  0  0
    3.7550   -3.6380    0.9070 H   0  0  0  0  0  0  0  0  0  0  0  0
    2.1290   -4.1340    0.3810 H   0  0  0  0  0  0  0  0  0  0  0  0
    3.1510   -0.0540   -0.1100 H   0  0  0  0  0  0  0  0  0  0  0  0
    4.3820   -1.1170    0.6130 H   0  0  0  0  0  0  0  0  0  0  0  0
    1.0960   -2.7140    2.1040 H   0  0  0  0  0  0  0  0  0  0  0  0
    2.2750   -3.8090    2.8660 H   0  0  0  0  0  0  0  0  0  0  0  0
    3.2660    0.1720    2.3630 H   0  0  0  0  0  0  0  0  0  0  0  0
    1.6750   -0.4000    1.8060 H   0  0  0  0  0  0  0  0  0  0  0  0
   -4.0530   -0.9600    0.0430 H   0  0  0  0  0  0  0  0  0  0  0  0
   -1.2420   -2.7910   -2.6350 H   0  0  0  0  0  0  0  0  0  0  0  0
    0.1670    2.6750    5.9600 H   0  0  0  0  0  0  0  0  0  0  0  0
   -1.0770    1.5680    5.3300 H   0  0  0  0  0  0  0  0  0  0  0  0
   -0.8870    3.1900    4.6200 H   0  0  0  0  0  0  0  0  0  0  0  0
   -2.2990   -4.9920   -2.2370 H   0  0  0  0  0  0  0  0  0  0  0  0
   -5.1030   -3.1660    0.4420 H   0  0  0  0  0  0  0  0  0  0  0  0
   -4.2310   -5.1810   -0.7010 H   0  0  0  0  0  0  0  0  0  0  0  0
  1  2  1  0  0  0  0
  1  3  2  0  0  0  0
  1 10  1  0  0  0  0
  2  5  1  0  0  0  0
  2  7  1  0  0  0  0
  3  4  1  0  0  0  0
  4  5  2  0  0  0  0
  4  6  1  0  0  0  0
  5  8  1  0  0  0  0
  6 12  2  0  0  0  0
  6 28  1  0  0  0  0
  7 14  1  0  0  0  0
  7 29  1  0  0  0  0
  7 30  1  0  0  0  0
  8 13  2  0  0  0  0
  8 31  1  0  0  0  0
  9 16  1  0  0  0  0
  9 18  1  0  0  0  0
  9 19  1  0  0  0  0
  9 32  1  0  0  0  0
 10 15  1  0  0  0  0
 11 20  1  0  0  0  0
 11 21  1  0  0  0  0
 12 13  1  0  0  0  0
 12 17  1  0  0  0  0
 13 33  1  0  0  0  0
 14 22  1  0  0  0  0
 14 23  2  0  0  0  0
 15 16  1  0  0  0  0
 15 34  1  0  0  0  0
 15 35  1  0  0  0  0
 16 36  1  0  0  0  0
 16 37  1  0  0  0  0
 17 24  1  0  0  0  0
 18 20  1  0  0  0  0
 18 38  1  0  0  0  0
 18 39  1  0  0  0  0
 19 21  1  0  0  0  0
 19 40  1  0  0  0  0
 19 41  1  0  0  0  0
 20 42  1  0  0  0  0
 20 43  1  0  0  0  0
 21 44  1  0  0  0  0
 21 45  1  0  0  0  0
 22 26  2  0  0  0  0
 22 46  1  0  0  0  0
 23 25  1  0  0  0  0
 23 47  1  0  0  0  0
 24 48  1  0  0  0  0
 24 49  1  0  0  0  0
 24 50  1  0  0  0  0
 25 27  2  0  0  0  0
 25 51  1  0  0  0  0
 26 27  1  0  0  0  0
 26 52  1  0  0  0  0
 27 53  1  0  0  0  0
M  CHG  1   9   1
M  END
>  <$CLUSTER>
365

>  <INDEX>
235156

$$$$
Pharmeks PHAR109475
  MOE2020           3D

 48 50  0  0  1  0  0  0  0  0999 V2000
    0.5950    0.1340   -0.0760 C   0  0  0  0  0  0  0  0  0  0  0  0
    1.8030    0.9660    0.3200 C   0  0  3  0  0  0  0  0  0  0  0  0
   -0.6160    0.1620    0.6630 C   0  0  0  0  0  0  0  0  0  0  0  0
    3.1730    3.0250   -0.0850 N   0  3  0  0  0  0  0  0  0  0  0  0
    1.8720    2.2630   -0.4790 C   0  0  3  0  0  0  0  0  0  0  0  0
   -1.6950   -0.6590    0.2600 C   0  0  0  0  0  0  0  0  0  0  0  0
    3.0020    0.2190    0.1070 O   0  0  0  0  0  0  0  0  0  0  0  0
    0.6690   -0.6650   -1.2330 C   0  0  0  0  0  0  0  0  0  0  0  0
    3.6790    3.9440   -1.1690 C   0  0  0  0  0  0  0  0  0  0  0  0
    3.1430    3.7220    1.2500 C   0  0  0  0  0  0  0  0  0  0  0  0
   -0.7430    1.0170    1.9080 C   0  0  0  0  0  0  0  0  0  0  0  0
    0.6660    3.1840   -0.3460 C   0  0  0  0  0  0  0  0  0  0  0  0
   -0.4080   -1.4460   -1.6390 C   0  0  0  0  0  0  0  0  0  0  0  0
   -1.5820   -1.4460   -0.8960 C   0  0  0  0  0  0  0  0  0  0  0  0
   -3.0100   -0.6800    1.0030 C   0  0  0  0  0  0  0  0  0  0  0  0
    5.0220    4.5070   -0.8260 C   0  0  0  0  0  0  0  0  0  0  0  0
    4.4640    4.2710    1.6180 C   0  0  0  0  0  0  0  0  0  0  0  0
   -2.1770    1.2090    2.3980 C   0  0  0  0  0  0  0  0  0  0  0  0
   -2.9140   -0.1200    2.4180 C   0  0  0  0  0  0  0  0  0  0  0  0
    5.0010    5.1990    0.5330 C   0  0  0  0  0  0  0  0  0  0  0  0
    1.7020    1.2150    1.3760 H   0  0  0  0  0  0  0  0  0  0  0  0
    3.8410    2.2750    0.0240 H   0  0  0  0  0  0  0  0  0  0  0  0
    1.8750    1.9680   -1.5280 H   0  0  0  0  0  0  0  0  0  0  0  0
    3.0570    0.0190   -0.8300 H   0  0  0  0  0  0  0  0  0  0  0  0
    1.5780   -0.6720   -1.8160 H   0  0  0  0  0  0  0  0  0  0  0  0
    2.9730    4.7640   -1.2960 H   0  0  0  0  0  0  0  0  0  0  0  0
    3.7570    3.3840   -2.1010 H   0  0  0  0  0  0  0  0  0  0  0  0
    2.8340    3.0080    2.0130 H   0  0  0  0  0  0  0  0  0  0  0  0
    2.4230    4.5390    1.2040 H   0  0  0  0  0  0  0  0  0  0  0  0
   -0.3220    1.9990    1.6920 H   0  0  0  0  0  0  0  0  0  0  0  0
   -0.1700    0.5440    2.7060 H   0  0  0  0  0  0  0  0  0  0  0  0
    0.5860    3.5310    0.6840 H   0  0  0  0  0  0  0  0  0  0  0  0
   -0.2380    2.6400   -0.6180 H   0  0  0  0  0  0  0  0  0  0  0  0
    0.7880    4.0400   -1.0090 H   0  0  0  0  0  0  0  0  0  0  0  0
   -0.3320   -2.0510   -2.5300 H   0  0  0  0  0  0  0  0  0  0  0  0
   -2.4150   -2.0570   -1.2110 H   0  0  0  0  0  0  0  0  0  0  0  0
   -3.3570   -1.7120    1.0620 H   0  0  0  0  0  0  0  0  0  0  0  0
   -3.7320   -0.0850    0.4440 H   0  0  0  0  0  0  0  0  0  0  0  0
    5.3090    5.2310   -1.5890 H   0  0  0  0  0  0  0  0  0  0  0  0
    5.7510    3.6970   -0.8010 H   0  0  0  0  0  0  0  0  0  0  0  0
    5.1640    3.4470    1.7590 H   0  0  0  0  0  0  0  0  0  0  0  0
    4.3690    4.8310    2.5490 H   0  0  0  0  0  0  0  0  0  0  0  0
   -2.6950    1.8970    1.7300 H   0  0  0  0  0  0  0  0  0  0  0  0
   -2.1590    1.6250    3.4050 H   0  0  0  0  0  0  0  0  0  0  0  0
   -2.3730   -0.8240    3.0500 H   0  0  0  0  0  0  0  0  0  0  0  0
   -3.9170    0.0290    2.8170 H   0  0  0  0  0  0  0  0  0  0  0  0
    4.3640    6.0810    0.4730 H   0  0  0  0  0  0  0  0  0  0  0  0
    6.0150    5.5010    0.7940 H   0  0  0  0  0  0  0  0  0  0  0  0
  1  2  1  0  0  0  0
  1  3  2  0  0  0  0
  1  8  1  0  0  0  0
  2  5  1  0  0  0  0
  2  7  1  0  0  0  0
  2 21  1  0  0  0  0
  3  6  1  0  0  0  0
  3 11  1  0  0  0  0
  4  5  1  0  0  0  0
  4  9  1  0  0  0  0
  4 10  1  0  0  0  0
  4 22  1  0  0  0  0
  5 12  1  0  0  0  0
  5 23  1  0  0  0  0
  6 14  2  0  0  0  0
  6 15  1  0  0  0  0
  7 24  1  0  0  0  0
  8 13  2  0  0  0  0
  8 25  1  0  0  0  0
  9 16  1  0  0  0  0
  9 26  1  0  0  0  0
  9 27  1  0  0  0  0
 10 17  1  0  0  0  0
 10 28  1  0  0  0  0
 10 29  1  0  0  0  0
 11 18  1  0  0  0  0
 11 30  1  0  0  0  0
 11 31  1  0  0  0  0
 12 32  1  0  0  0  0
 12 33  1  0  0  0  0
 12 34  1  0  0  0  0
 13 14  1  0  0  0  0
 13 35  1  0  0  0  0
 14 36  1  0  0  0  0
 15 19  1  0  0  0  0
 15 37  1  0  0  0  0
 15 38  1  0  0  0  0
 16 20  1  0  0  0  0
 16 39  1  0  0  0  0
 16 40  1  0  0  0  0
 17 20  1  0  0  0  0
 17 41  1  0  0  0  0
 17 42  1  0  0  0  0
 18 19  1  0  0  0  0
 18 43  1  0  0  0  0
 18 44  1  0  0  0  0
 19 45  1  0  0  0  0
 19 46  1  0  0  0  0
 20 47  1  0  0  0  0
 20 48  1  0  0  0  0
M  CHG  1   4   1
M  END
>  <$CLUSTER>
366

>  <INDEX>
609184

$$$$
FCHC 11162
  MOE2020           3D

 44 47  0  0  1  0  0  0  0  0999 V2000
    0.3690    0.7510    0.1260 N   0  0  0  0  0  0  0  0  0  0  0  0
   -0.2160    1.0810    1.2980 N   0  0  0  0  0  0  0  0  0  0  0  0
    1.4340    1.5680   -0.4300 C   0  0  3  0  0  0  0  0  0  0  0  0
    0.8080    2.7990   -0.9050 N   0  0  0  0  0  0  0  0  0  0  0  0
   -1.1400    0.1650    1.5620 N   0  0  0  0  0  0  0  0  0  0  0  0
   -0.1740   -0.3960   -0.3970 C   0  0  0  0  0  0  0  0  0  0  0  0
    1.3310    3.6060   -1.8430 C   0  0  0  0  0  0  0  0  0  0  0  0
   -1.1360   -0.7480    0.5430 C   0  0  0  0  0  0  0  0  0  0  0  0
    2.5440    1.8660    0.5750 C   0  0  0  0  0  0  0  0  0  0  0  0
    2.3990    3.4130   -2.4220 O   0  0  0  0  0  0  0  0  0  0  0  0
    0.4660    4.8050   -2.1250 C   0  0  0  0  0  0  0  0  0  0  0  0
    2.2650    2.5280    1.7860 C   0  0  0  0  0  0  0  0  0  0  0  0
    3.8560    1.4500    0.3200 C   0  0  0  0  0  0  0  0  0  0  0  0
    4.8760    1.7060    1.2430 C   0  0  0  0  0  0  0  0  0  0  0  0
    3.2840    2.7840    2.7080 C   0  0  0  0  0  0  0  0  0  0  0  0
    4.5900    2.3720    2.4360 C   0  0  0  0  0  0  0  0  0  0  0  0
    0.0620   -1.1410   -1.5560 C   0  0  0  0  0  0  0  0  0  0  0  0
   -1.9140   -1.8990    0.3440 C   0  0  0  0  0  0  0  0  0  0  0  0
    0.6430    5.4030   -3.4140 C   0  0  0  0  0  0  0  0  0  0  0  0
   -0.3900    5.3710   -1.2270 C   0  0  0  0  0  0  0  0  0  0  0  0
    5.6770    2.6430    3.4220 C   0  0  0  0  0  0  0  0  0  0  0  0
   -0.7220   -2.2860   -1.7420 C   0  0  0  0  0  0  0  0  0  0  0  0
   -1.6930   -2.6590   -0.8100 C   0  0  0  0  0  0  0  0  0  0  0  0
   -0.1050    6.5330   -3.7510 C   0  0  0  0  0  0  0  0  0  0  0  0
   -1.1350    6.5020   -1.5690 C   0  0  0  0  0  0  0  0  0  0  0  0
   -0.9950    7.0810   -2.8290 C   0  0  0  0  0  0  0  0  0  0  0  0
    1.9260    1.0300   -1.2400 H   0  0  0  0  0  0  0  0  0  0  0  0
   -0.0790    3.0620   -0.5000 H   0  0  0  0  0  0  0  0  0  0  0  0
    1.2550    2.8410    2.0040 H   0  0  0  0  0  0  0  0  0  0  0  0
    4.0830    0.9270   -0.5970 H   0  0  0  0  0  0  0  0  0  0  0  0
    5.8860    1.3880    1.0320 H   0  0  0  0  0  0  0  0  0  0  0  0
    3.0610    3.3000    3.6300 H   0  0  0  0  0  0  0  0  0  0  0  0
    0.8130   -0.8470   -2.2740 H   0  0  0  0  0  0  0  0  0  0  0  0
   -2.6650   -2.1910    1.0640 H   0  0  0  0  0  0  0  0  0  0  0  0
    1.3470    4.9850   -4.1180 H   0  0  0  0  0  0  0  0  0  0  0  0
   -0.4930    4.9410   -0.2420 H   0  0  0  0  0  0  0  0  0  0  0  0
    6.6200    2.2520    3.0400 H   0  0  0  0  0  0  0  0  0  0  0  0
    5.4390    2.1570    4.3680 H   0  0  0  0  0  0  0  0  0  0  0  0
    5.7660    3.7180    3.5780 H   0  0  0  0  0  0  0  0  0  0  0  0
   -0.5730   -2.8920   -2.6230 H   0  0  0  0  0  0  0  0  0  0  0  0
   -2.2820   -3.5470   -0.9830 H   0  0  0  0  0  0  0  0  0  0  0  0
    0.0060    6.9830   -4.7270 H   0  0  0  0  0  0  0  0  0  0  0  0
   -1.8220    6.9300   -0.8540 H   0  0  0  0  0  0  0  0  0  0  0  0
   -1.5760    7.9530   -3.0910 H   0  0  0  0  0  0  0  0  0  0  0  0
  1  2  1  0  0  0  0
  1  3  1  0  0  0  0
  1  6  1  0  0  0  0
  2  5  2  0  0  0  0
  3  4  1  0  0  0  0
  3  9  1  0  0  0  0
  3 27  1  0  0  0  0
  4  7  1  0  0  0  0
  4 28  1  0  0  0  0
  5  8  1  0  0  0  0
  6  8  2  0  0  0  0
  6 17  1  0  0  0  0
  7 10  2  0  0  0  0
  7 11  1  0  0  0  0
  8 18  1  0  0  0  0
  9 12  1  0  0  0  0
  9 13  2  0  0  0  0
 11 19  2  0  0  0  0
 11 20  1  0  0  0  0
 12 15  2  0  0  0  0
 12 29  1  0  0  0  0
 13 14  1  0  0  0  0
 13 30  1  0  0  0  0
 14 16  2  0  0  0  0
 14 31  1  0  0  0  0
 15 16  1  0  0  0  0
 15 32  1  0  0  0  0
 16 21  1  0  0  0  0
 17 22  2  0  0  0  0
 17 33  1  0  0  0  0
 18 23  2  0  0  0  0
 18 34  1  0  0  0  0
 19 24  1  0  0  0  0
 19 35  1  0  0  0  0
 20 25  2  0  0  0  0
 20 36  1  0  0  0  0
 21 37  1  0  0  0  0
 21 38  1  0  0  0  0
 21 39  1  0  0  0  0
 22 23  1  0  0  0  0
 22 40  1  0  0  0  0
 23 41  1  0  0  0  0
 24 26  2  0  0  0  0
 24 42  1  0  0  0  0
 25 26  1  0  0  0  0
 25 43  1  0  0  0  0
 26 44  1  0  0  0  0
M  END
>  <$CLUSTER>
367

>  <INDEX>
223279

$$$$
Comgenex CGX-3116471
  MOE2020           3D

 53 54  0  0  0  0  0  0  0  0999 V2000
   -0.0930   -0.3110    0.4280 C   0  0  0  0  0  0  0  0  0  0  0  0
   -0.0180   -0.5750    1.7160 N   0  0  0  0  0  0  0  0  0  0  0  0
   -0.0400   -1.6730   -0.6050 S   0  0  0  0  0  0  0  0  0  0  0  0
   -0.2070    0.9790   -0.0630 N   0  0  0  0  0  0  0  0  0  0  0  0
    0.0880   -1.9380    1.9050 C   0  0  0  0  0  0  0  0  0  0  0  0
    0.0930   -2.6990    0.7580 C   0  0  0  0  0  0  0  0  0  0  0  0
   -2.6670    3.7100   -0.7250 C   0  0  0  0  0  0  0  0  0  0  0  0
   -1.8040    3.3070   -1.7400 N   0  0  0  0  0  0  0  0  0  0  0  0
   -0.2920    1.3610   -1.3950 C   0  0  0  0  0  0  0  0  0  0  0  0
   -0.4050    2.8600   -1.5180 C   0  0  0  0  0  0  0  0  0  0  0  0
   -2.1320    3.6800    0.6850 C   0  0  0  0  0  0  0  0  0  0  0  0
   -3.8220    4.0960   -0.9260 O   0  0  0  0  0  0  0  0  0  0  0  0
   -0.2840    0.6510   -2.3960 O   0  0  0  0  0  0  0  0  0  0  0  0
   -3.0460    3.5490    1.7180 C   0  0  0  0  0  0  0  0  0  0  0  0
   -0.7690    3.7830    0.9380 C   0  0  0  0  0  0  0  0  0  0  0  0
   -2.5900    3.5130    3.0380 C   0  0  0  0  0  0  0  0  0  0  0  0
   -0.3180    3.7480    2.2600 C   0  0  0  0  0  0  0  0  0  0  0  0
   -1.2270    3.6100    3.3080 C   0  0  0  0  0  0  0  0  0  0  0  0
    0.1860   -2.4810    3.2380 C   0  0  0  0  0  0  0  0  0  0  0  0
    0.1920   -4.1230    0.6630 C   0  0  0  0  0  0  0  0  0  0  0  0
   -2.2780    3.2970   -3.1240 C   0  0  0  0  0  0  0  0  0  0  0  0
   -0.7270    3.5570    4.7460 C   0  0  0  0  0  0  0  0  0  0  0  0
   -2.0000    4.6210   -3.8180 C   0  0  0  0  0  0  0  0  0  0  0  0
   -2.4970    4.6230   -5.2490 C   0  0  0  0  0  0  0  0  0  0  0  0
   -0.4300    2.1320    5.1860 C   0  0  0  0  0  0  0  0  0  0  0  0
   -2.2200    5.9490   -5.9440 C   0  0  0  0  0  0  0  0  0  0  0  0
   -0.2310    1.7210    0.6210 H   0  0  0  0  0  0  0  0  0  0  0  0
   -0.0340    3.3150   -0.6000 H   0  0  0  0  0  0  0  0  0  0  0  0
    0.2050    3.1890   -2.3590 H   0  0  0  0  0  0  0  0  0  0  0  0
   -4.1020    3.4750    1.5050 H   0  0  0  0  0  0  0  0  0  0  0  0
   -0.0680    3.8890    0.1230 H   0  0  0  0  0  0  0  0  0  0  0  0
   -3.2950    3.4100    3.8500 H   0  0  0  0  0  0  0  0  0  0  0  0
    0.7380    3.8280    2.4710 H   0  0  0  0  0  0  0  0  0  0  0  0
    0.1590   -1.6690    3.9640 H   0  0  0  0  0  0  0  0  0  0  0  0
    1.1230   -3.0280    3.3400 H   0  0  0  0  0  0  0  0  0  0  0  0
   -0.6500   -3.1570    3.4170 H   0  0  0  0  0  0  0  0  0  0  0  0
    0.1680   -4.4200   -0.3860 H   0  0  0  0  0  0  0  0  0  0  0  0
   -0.6450   -4.5810    1.1900 H   0  0  0  0  0  0  0  0  0  0  0  0
    1.1290   -4.4530    1.1120 H   0  0  0  0  0  0  0  0  0  0  0  0
   -3.3520    3.1130   -3.1290 H   0  0  0  0  0  0  0  0  0  0  0  0
   -1.7700    2.4990   -3.6660 H   0  0  0  0  0  0  0  0  0  0  0  0
   -1.4900    3.9770    5.4010 H   0  0  0  0  0  0  0  0  0  0  0  0
    0.1850    4.1480    4.8250 H   0  0  0  0  0  0  0  0  0  0  0  0
   -0.9250    4.8000   -3.8180 H   0  0  0  0  0  0  0  0  0  0  0  0
   -2.5010    5.4190   -3.2700 H   0  0  0  0  0  0  0  0  0  0  0  0
   -3.5720    4.4430   -5.2490 H   0  0  0  0  0  0  0  0  0  0  0  0
   -1.9950    3.8260   -5.7980 H   0  0  0  0  0  0  0  0  0  0  0  0
   -1.3370    1.5320    5.1110 H   0  0  0  0  0  0  0  0  0  0  0  0
   -0.0820    2.1360    6.2190 H   0  0  0  0  0  0  0  0  0  0  0  0
    0.3410    1.7070    4.5440 H   0  0  0  0  0  0  0  0  0  0  0  0
   -2.7180    6.7540   -5.4030 H   0  0  0  0  0  0  0  0  0  0  0  0
   -2.5980    5.9100   -6.9660 H   0  0  0  0  0  0  0  0  0  0  0  0
   -1.1460    6.1330   -5.9610 H   0  0  0  0  0  0  0  0  0  0  0  0
  1  2  2  0  0  0  0
  1  3  1  0  0  0  0
  1  4  1  0  0  0  0
  2  5  1  0  0  0  0
  3  6  1  0  0  0  0
  4  9  1  0  0  0  0
  4 27  1  0  0  0  0
  5  6  2  0  0  0  0
  5 19  1  0  0  0  0
  6 20  1  0  0  0  0
  7  8  1  0  0  0  0
  7 11  1  0  0  0  0
  7 12  2  0  0  0  0
  8 10  1  0  0  0  0
  8 21  1  0  0  0  0
  9 10  1  0  0  0  0
  9 13  2  0  0  0  0
 10 28  1  0  0  0  0
 10 29  1  0  0  0  0
 11 14  2  0  0  0  0
 11 15  1  0  0  0  0
 14 16  1  0  0  0  0
 14 30  1  0  0  0  0
 15 17  2  0  0  0  0
 15 31  1  0  0  0  0
 16 18  2  0  0  0  0
 16 32  1  0  0  0  0
 17 18  1  0  0  0  0
 17 33  1  0  0  0  0
 18 22  1  0  0  0  0
 19 34  1  0  0  0  0
 19 35  1  0  0  0  0
 19 36  1  0  0  0  0
 20 37  1  0  0  0  0
 20 38  1  0  0  0  0
 20 39  1  0  0  0  0
 21 23  1  0  0  0  0
 21 40  1  0  0  0  0
 21 41  1  0  0  0  0
 22 25  1  0  0  0  0
 22 42  1  0  0  0  0
 22 43  1  0  0  0  0
 23 24  1  0  0  0  0
 23 44  1  0  0  0  0
 23 45  1  0  0  0  0
 24 26  1  0  0  0  0
 24 46  1  0  0  0  0
 24 47  1  0  0  0  0
 25 48  1  0  0  0  0
 25 49  1  0  0  0  0
 25 50  1  0  0  0  0
 26 51  1  0  0  0  0
 26 52  1  0  0  0  0
 26 53  1  0  0  0  0
M  END
>  <$CLUSTER>
368

>  <INDEX>
258758

$$$$
Comgenex CGX-0745899
  MOE2020           3D

 64 66  0  0  0  0  0  0  0  0999 V2000
    5.3420    2.1730    3.1570 C   0  0  0  0  0  0  0  0  0  0  0  0
    1.5640   -0.1590    0.9770 C   0  0  0  0  0  0  0  0  0  0  0  0
    5.7830    1.0460    3.8440 C   0  0  0  0  0  0  0  0  0  0  0  0
    0.4860    0.2150    0.0370 C   0  0  0  0  0  0  0  0  0  0  0  0
    6.0440    3.4560    3.1090 C   0  0  0  0  0  0  0  0  0  0  0  0
    6.8700    1.0920    4.7770 N   0  0  0  0  0  0  0  0  0  0  0  0
    2.4260    0.8560    1.3270 N   0  0  0  0  0  0  0  0  0  0  0  0
    4.2240    2.0890    2.3250 C   0  0  0  0  0  0  0  0  0  0  0  0
    5.1060   -0.1620    3.6970 C   0  0  0  0  0  0  0  0  0  0  0  0
    3.5330    0.8770    2.1700 C   0  0  0  0  0  0  0  0  0  0  0  0
    1.6500   -1.3070    1.4010 O   0  0  0  0  0  0  0  0  0  0  0  0
   -0.8320   -0.2280    0.2440 C   0  0  0  0  0  0  0  0  0  0  0  0
    5.4680    4.4790    3.4580 O   0  0  0  0  0  0  0  0  0  0  0  0
    7.3280    3.3990    2.6180 N   0  0  0  0  0  0  0  0  0  0  0  0
    3.9860   -0.2500    2.8640 C   0  0  0  0  0  0  0  0  0  0  0  0
    8.6280    7.0930   -0.3230 N   0  3  0  0  0  0  0  0  0  0  0  0
    0.8080    0.9900   -1.0860 C   0  0  0  0  0  0  0  0  0  0  0  0
   -1.0680   -0.9670    1.3750 O   0  0  0  0  0  0  0  0  0  0  0  0
    7.7790   -0.0400    4.8870 C   0  0  0  0  0  0  0  0  0  0  0  0
    7.0830    2.2250    5.6640 C   0  0  0  0  0  0  0  0  0  0  0  0
    7.9710    5.2450    1.1520 C   0  0  0  0  0  0  0  0  0  0  0  0
    8.1930    4.5440    2.4780 C   0  0  0  0  0  0  0  0  0  0  0  0
    8.8850    6.4510    0.9820 C   0  0  0  0  0  0  0  0  0  0  0  0
   -1.8160    0.1280   -0.6860 C   0  0  0  0  0  0  0  0  0  0  0  0
    9.2400    8.4950   -0.3760 C   0  0  0  0  0  0  0  0  0  0  0  0
    9.0850    6.3060   -1.5310 C   0  0  0  0  0  0  0  0  0  0  0  0
   -2.3900   -1.4500    1.5810 C   0  0  0  0  0  0  0  0  0  0  0  0
   -0.1840    1.3350   -2.0020 C   0  0  0  0  0  0  0  0  0  0  0  0
    8.6610    2.1860    5.6300 C   0  0  0  0  0  0  0  0  0  0  0  0
    9.0850    0.8040    5.1570 C   0  0  0  0  0  0  0  0  0  0  0  0
   -1.4920    0.9050   -1.8020 C   0  0  0  0  0  0  0  0  0  0  0  0
    2.2180    1.7450    0.8940 H   0  0  0  0  0  0  0  0  0  0  0  0
    3.8870    2.9670    1.7940 H   0  0  0  0  0  0  0  0  0  0  0  0
    5.4480   -1.0370    4.2300 H   0  0  0  0  0  0  0  0  0  0  0  0
    7.6880    2.4980    2.3380 H   0  0  0  0  0  0  0  0  0  0  0  0
    3.4690   -1.1920    2.7560 H   0  0  0  0  0  0  0  0  0  0  0  0
    7.6210    7.1380   -0.3810 H   0  0  0  0  0  0  0  0  0  0  0  0
    1.8250    1.3200   -1.2410 H   0  0  0  0  0  0  0  0  0  0  0  0
    7.8380   -0.6210    3.9660 H   0  0  0  0  0  0  0  0  0  0  0  0
    7.5280   -0.7000    5.7170 H   0  0  0  0  0  0  0  0  0  0  0  0
    6.6810    2.0560    6.6630 H   0  0  0  0  0  0  0  0  0  0  0  0
    6.6780    3.1540    5.2620 H   0  0  0  0  0  0  0  0  0  0  0  0
    6.9350    5.5790    1.1000 H   0  0  0  0  0  0  0  0  0  0  0  0
    8.1660    4.5390    0.3440 H   0  0  0  0  0  0  0  0  0  0  0  0
    9.2300    4.2140    2.5360 H   0  0  0  0  0  0  0  0  0  0  0  0
    7.9890    5.2440    3.2880 H   0  0  0  0  0  0  0  0  0  0  0  0
    8.6930    7.1660    1.7810 H   0  0  0  0  0  0  0  0  0  0  0  0
    9.9250    6.1260    1.0270 H   0  0  0  0  0  0  0  0  0  0  0  0
   -2.8340   -0.2010   -0.5400 H   0  0  0  0  0  0  0  0  0  0  0  0
   10.3260    8.4200   -0.3120 H   0  0  0  0  0  0  0  0  0  0  0  0
    8.8670    9.0860    0.4600 H   0  0  0  0  0  0  0  0  0  0  0  0
    8.9640    8.9770   -1.3140 H   0  0  0  0  0  0  0  0  0  0  0  0
   10.1720    6.2250   -1.5220 H   0  0  0  0  0  0  0  0  0  0  0  0
    8.7670    6.8170   -2.4390 H   0  0  0  0  0  0  0  0  0  0  0  0
    8.6460    5.3090   -1.5030 H   0  0  0  0  0  0  0  0  0  0  0  0
   -2.4290   -2.0160    2.5120 H   0  0  0  0  0  0  0  0  0  0  0  0
   -2.6740   -2.0960    0.7510 H   0  0  0  0  0  0  0  0  0  0  0  0
   -3.0800   -0.6080    1.6390 H   0  0  0  0  0  0  0  0  0  0  0  0
    0.0620    1.9350   -2.8660 H   0  0  0  0  0  0  0  0  0  0  0  0
    9.0580    2.3740    6.6280 H   0  0  0  0  0  0  0  0  0  0  0  0
    9.0350    2.9440    4.9420 H   0  0  0  0  0  0  0  0  0  0  0  0
    9.6670    0.8890    4.2390 H   0  0  0  0  0  0  0  0  0  0  0  0
    9.6870    0.3190    5.9250 H   0  0  0  0  0  0  0  0  0  0  0  0
   -2.2600    1.1730   -2.5120 H   0  0  0  0  0  0  0  0  0  0  0  0
  1  3  2  0  0  0  0
  1  5  1  0  0  0  0
  1  8  1  0  0  0  0
  2  4  1  0  0  0  0
  2  7  1  0  0  0  0
  2 11  2  0  0  0  0
  3  6  1  0  0  0  0
  3  9  1  0  0  0  0
  4 12  2  0  0  0  0
  4 17  1  0  0  0  0
  5 13  2  0  0  0  0
  5 14  1  0  0  0  0
  6 19  1  0  0  0  0
  6 20  1  0  0  0  0
  7 10  1  0  0  0  0
  7 32  1  0  0  0  0
  8 10  2  0  0  0  0
  8 33  1  0  0  0  0
  9 15  2  0  0  0  0
  9 34  1  0  0  0  0
 10 15  1  0  0  0  0
 12 18  1  0  0  0  0
 12 24  1  0  0  0  0
 14 22  1  0  0  0  0
 14 35  1  0  0  0  0
 15 36  1  0  0  0  0
 16 23  1  0  0  0  0
 16 25  1  0  0  0  0
 16 26  1  0  0  0  0
 16 37  1  0  0  0  0
 17 28  2  0  0  0  0
 17 38  1  0  0  0  0
 18 27  1  0  0  0  0
 19 30  1  0  0  0  0
 19 39  1  0  0  0  0
 19 40  1  0  0  0  0
 20 29  1  0  0  0  0
 20 41  1  0  0  0  0
 20 42  1  0  0  0  0
 21 22  1  0  0  0  0
 21 23  1  0  0  0  0
 21 43  1  0  0  0  0
 21 44  1  0  0  0  0
 22 45  1  0  0  0  0
 22 46  1  0  0  0  0
 23 47  1  0  0  0  0
 23 48  1  0  0  0  0
 24 31  2  0  0  0  0
 24 49  1  0  0  0  0
 25 50  1  0  0  0  0
 25 51  1  0  0  0  0
 25 52  1  0  0  0  0
 26 53  1  0  0  0  0
 26 54  1  0  0  0  0
 26 55  1  0  0  0  0
 27 56  1  0  0  0  0
 27 57  1  0  0  0  0
 27 58  1  0  0  0  0
 28 31  1  0  0  0  0
 28 59  1  0  0  0  0
 29 30  1  0  0  0  0
 29 60  1  0  0  0  0
 29 61  1  0  0  0  0
 30 62  1  0  0  0  0
 30 63  1  0  0  0  0
 31 64  1  0  0  0  0
M  CHG  1  16   1
M  END
>  <$CLUSTER>
369

>  <INDEX>
240888

$$$$
Comgenex CGX-0743745
  MOE2020           3D

 58 60  0  0  0  0  0  0  0  0999 V2000
   -1.2370   -3.5820    0.2080 C   0  0  0  0  0  0  0  0  0  0  0  0
   -1.3470   -2.2450    0.6450 C   0  0  0  0  0  0  0  0  0  0  0  0
   -5.6920   -5.0040    1.7620 C   0  0  0  0  0  0  0  0  0  0  0  0
   -0.0040   -4.1420   -0.3690 C   0  0  0  0  0  0  0  0  0  0  0  0
   -0.4190   -1.3050    0.4390 N   0  0  0  0  0  0  0  0  0  0  0  0
   -4.4460   -5.1290    1.1610 N   0  0  0  0  0  0  0  0  0  0  0  0
   -2.2810   -4.5080    0.3760 C   0  0  0  0  0  0  0  0  0  0  0  0
   -2.5460   -1.9110    1.3120 C   0  0  0  0  0  0  0  0  0  0  0  0
   -3.4550   -4.1290    1.0170 C   0  0  0  0  0  0  0  0  0  0  0  0
   -6.1800   -4.0110    2.2910 O   0  0  0  0  0  0  0  0  0  0  0  0
   -6.4570   -6.3020    1.7030 C   0  0  0  0  0  0  0  0  0  0  0  0
   -0.0170   -4.6360   -1.4910 O   0  0  0  0  0  0  0  0  0  0  0  0
    1.0910   -4.0980    0.4630 N   0  0  0  0  0  0  0  0  0  0  0  0
   -3.5840   -2.8320    1.4940 C   0  0  0  0  0  0  0  0  0  0  0  0
   -0.0980   -0.2550    1.4120 C   0  0  0  0  0  0  0  0  0  0  0  0
    0.3670   -1.1450   -0.7900 C   0  0  0  0  0  0  0  0  0  0  0  0
    2.5240   -6.0780    0.4130 C   0  0  0  0  0  0  0  0  0  0  0  0
    3.9450   -8.0040    0.3650 O   0  0  0  0  0  0  0  0  0  0  0  0
    2.3960   -4.5980    0.1070 C   0  0  0  0  0  0  0  0  0  0  0  0
    3.9000   -6.6200    0.0540 C   0  0  0  0  0  0  0  0  0  0  0  0
   -7.8800   -6.1920    1.7810 C   0  0  0  0  0  0  0  0  0  0  0  0
   -5.8830   -7.5500    1.6480 C   0  0  0  0  0  0  0  0  0  0  0  0
    5.2060   -8.5760    0.0530 C   0  0  0  0  0  0  0  0  0  0  0  0
    0.1190    0.2150   -1.4400 C   0  0  0  0  0  0  0  0  0  0  0  0
   -0.3630    1.1370    0.8430 C   0  0  0  0  0  0  0  0  0  0  0  0
   -8.6670   -7.3450    1.7580 C   0  0  0  0  0  0  0  0  0  0  0  0
   -6.6750   -8.7010    1.6260 C   0  0  0  0  0  0  0  0  0  0  0  0
    0.3930    1.3540   -0.4640 C   0  0  0  0  0  0  0  0  0  0  0  0
   -8.0640   -8.5990    1.6780 C   0  0  0  0  0  0  0  0  0  0  0  0
   -4.2210   -6.0380    0.7830 H   0  0  0  0  0  0  0  0  0  0  0  0
   -2.1710   -5.5170    0.0060 H   0  0  0  0  0  0  0  0  0  0  0  0
   -2.6660   -0.9090    1.6960 H   0  0  0  0  0  0  0  0  0  0  0  0
    0.9740   -3.6900    1.3800 H   0  0  0  0  0  0  0  0  0  0  0  0
   -4.4870   -2.5330    2.0060 H   0  0  0  0  0  0  0  0  0  0  0  0
    0.9550   -0.3320    1.6820 H   0  0  0  0  0  0  0  0  0  0  0  0
   -0.7120   -0.3970    2.3010 H   0  0  0  0  0  0  0  0  0  0  0  0
    0.0880   -1.9300   -1.4930 H   0  0  0  0  0  0  0  0  0  0  0  0
    1.4260   -1.2340   -0.5470 H   0  0  0  0  0  0  0  0  0  0  0  0
    1.7720   -6.6210   -0.1590 H   0  0  0  0  0  0  0  0  0  0  0  0
    2.3520   -6.2330    1.4780 H   0  0  0  0  0  0  0  0  0  0  0  0
    3.1510   -4.0520    0.6730 H   0  0  0  0  0  0  0  0  0  0  0  0
    2.5570   -4.4410   -0.9600 H   0  0  0  0  0  0  0  0  0  0  0  0
    4.6620   -6.0910    0.6270 H   0  0  0  0  0  0  0  0  0  0  0  0
    4.0820   -6.4780   -1.0110 H   0  0  0  0  0  0  0  0  0  0  0  0
   -8.3450   -5.2200    1.8570 H   0  0  0  0  0  0  0  0  0  0  0  0
   -4.8070   -7.6420    1.6210 H   0  0  0  0  0  0  0  0  0  0  0  0
    5.1970   -9.6360    0.3070 H   0  0  0  0  0  0  0  0  0  0  0  0
    5.9850   -8.0720    0.6250 H   0  0  0  0  0  0  0  0  0  0  0  0
    5.4040   -8.4590   -1.0120 H   0  0  0  0  0  0  0  0  0  0  0  0
   -0.9200    0.2690   -1.7660 H   0  0  0  0  0  0  0  0  0  0  0  0
    0.7760    0.3210   -2.3030 H   0  0  0  0  0  0  0  0  0  0  0  0
   -0.0410    1.8840    1.5680 H   0  0  0  0  0  0  0  0  0  0  0  0
   -1.4310    1.2480    0.6580 H   0  0  0  0  0  0  0  0  0  0  0  0
   -9.7430   -7.2650    1.8020 H   0  0  0  0  0  0  0  0  0  0  0  0
   -6.2090   -9.6740    1.5680 H   0  0  0  0  0  0  0  0  0  0  0  0
    0.0710    2.2940   -0.9120 H   0  0  0  0  0  0  0  0  0  0  0  0
    1.4620    1.3980   -0.2560 H   0  0  0  0  0  0  0  0  0  0  0  0
   -8.6730   -9.4910    1.6560 H   0  0  0  0  0  0  0  0  0  0  0  0
  1  2  2  0  0  0  0
  1  4  1  0  0  0  0
  1  7  1  0  0  0  0
  2  5  1  0  0  0  0
  2  8  1  0  0  0  0
  3  6  1  0  0  0  0
  3 10  2  0  0  0  0
  3 11  1  0  0  0  0
  4 12  2  0  0  0  0
  4 13  1  0  0  0  0
  5 15  1  0  0  0  0
  5 16  1  0  0  0  0
  6  9  1  0  0  0  0
  6 30  1  0  0  0  0
  7  9  2  0  0  0  0
  7 31  1  0  0  0  0
  8 14  2  0  0  0  0
  8 32  1  0  0  0  0
  9 14  1  0  0  0  0
 11 21  2  0  0  0  0
 11 22  1  0  0  0  0
 13 19  1  0  0  0  0
 13 33  1  0  0  0  0
 14 34  1  0  0  0  0
 15 25  1  0  0  0  0
 15 35  1  0  0  0  0
 15 36  1  0  0  0  0
 16 24  1  0  0  0  0
 16 37  1  0  0  0  0
 16 38  1  0  0  0  0
 17 19  1  0  0  0  0
 17 20  1  0  0  0  0
 17 39  1  0  0  0  0
 17 40  1  0  0  0  0
 18 20  1  0  0  0  0
 18 23  1  0  0  0  0
 19 41  1  0  0  0  0
 19 42  1  0  0  0  0
 20 43  1  0  0  0  0
 20 44  1  0  0  0  0
 21 26  1  0  0  0  0
 21 45  1  0  0  0  0
 22 27  2  0  0  0  0
 22 46  1  0  0  0  0
 23 47  1  0  0  0  0
 23 48  1  0  0  0  0
 23 49  1  0  0  0  0
 24 28  1  0  0  0  0
 24 50  1  0  0  0  0
 24 51  1  0  0  0  0
 25 28  1  0  0  0  0
 25 52  1  0  0  0  0
 25 53  1  0  0  0  0
 26 29  2  0  0  0  0
 26 54  1  0  0  0  0
 27 29  1  0  0  0  0
 27 55  1  0  0  0  0
 28 56  1  0  0  0  0
 28 57  1  0  0  0  0
 29 58  1  0  0  0  0
M  END
>  <$CLUSTER>
370

>  <INDEX>
240769

$$$$
Comgenex CGX-0819613
  MOE2020           3D

 58 60  0  0  0  0  0  0  0  0999 V2000
   -0.4170   -0.1970    0.1520 S   0  0  0  0  0  0  0  0  0  0  0  0
   -0.8030    2.5400   -5.1580 N   0  0  0  0  0  0  0  0  0  0  0  0
   -1.0510    3.8610   -5.5560 C   0  0  0  0  0  0  0  0  0  0  0  0
    1.1410    1.4680   -1.1520 C   0  0  0  0  0  0  0  0  0  0  0  0
   -2.4780    4.2200   -5.8890 C   0  0  0  0  0  0  0  0  0  0  0  0
    1.0590    0.3570   -0.2730 O   0  0  0  0  0  0  0  0  0  0  0  0
   -2.6900    5.2770   -6.7570 C   0  0  0  0  0  0  0  0  0  0  0  0
    0.5590    2.1440   -4.8440 C   0  0  0  0  0  0  0  0  0  0  0  0
   -1.0610   -0.7830   -1.0060 O   0  0  0  0  0  0  0  0  0  0  0  0
   -1.0790    0.7880    0.9820 O   0  0  0  0  0  0  0  0  0  0  0  0
    1.4760    2.7090   -0.6450 C   0  0  0  0  0  0  0  0  0  0  0  0
    0.8290    1.2530   -2.4920 C   0  0  0  0  0  0  0  0  0  0  0  0
   -1.8460    1.5090   -5.0310 C   0  0  0  0  0  0  0  0  0  0  0  0
   -3.9960    5.6390   -7.0920 C   0  0  0  0  0  0  0  0  0  0  0  0
   -0.1760    4.7270   -5.6330 O   0  0  0  0  0  0  0  0  0  0  0  0
    0.8790    2.3380   -3.3670 C   0  0  0  0  0  0  0  0  0  0  0  0
   -3.5430    3.5130   -5.3390 C   0  0  0  0  0  0  0  0  0  0  0  0
   -5.0740    4.9400   -6.5540 C   0  0  0  0  0  0  0  0  0  0  0  0
   -4.8480    3.8800   -5.6770 C   0  0  0  0  0  0  0  0  0  0  0  0
    1.5220    3.7920   -1.5380 C   0  0  0  0  0  0  0  0  0  0  0  0
    0.1480   -1.5150    1.1980 C   0  0  0  0  0  0  0  0  0  0  0  0
    1.2210    3.6030   -2.8900 C   0  0  0  0  0  0  0  0  0  0  0  0
    1.7700    2.7830    0.7130 O   0  0  0  0  0  0  0  0  0  0  0  0
   -1.9620    0.6620   -6.2880 C   0  0  0  0  0  0  0  0  0  0  0  0
   -4.2380    6.7170   -7.9820 C   0  0  0  0  0  0  0  0  0  0  0  0
   -6.3970    5.3170   -6.8990 C   0  0  0  0  0  0  0  0  0  0  0  0
    2.1390    4.0700    1.2200 C   0  0  0  0  0  0  0  0  0  0  0  0
   -2.3760    1.4800   -7.5190 C   0  0  0  0  0  0  0  0  0  0  0  0
   -2.9790   -0.4670   -6.0630 C   0  0  0  0  0  0  0  0  0  0  0  0
   -5.5430    7.0780   -8.3150 C   0  0  0  0  0  0  0  0  0  0  0  0
   -6.6200    6.3790   -7.7750 C   0  0  0  0  0  0  0  0  0  0  0  0
   -1.8520    5.8170   -7.1720 H   0  0  0  0  0  0  0  0  0  0  0  0
    1.2470    2.7470   -5.4360 H   0  0  0  0  0  0  0  0  0  0  0  0
    0.6880    1.0920   -5.0980 H   0  0  0  0  0  0  0  0  0  0  0  0
    0.5550    0.2700   -2.8450 H   0  0  0  0  0  0  0  0  0  0  0  0
   -2.8030    1.9970   -4.8450 H   0  0  0  0  0  0  0  0  0  0  0  0
   -1.6000    0.8600   -4.1900 H   0  0  0  0  0  0  0  0  0  0  0  0
   -3.3630    2.6920   -4.6600 H   0  0  0  0  0  0  0  0  0  0  0  0
   -5.6840    3.3410   -5.2580 H   0  0  0  0  0  0  0  0  0  0  0  0
    1.7910    4.7740   -1.1790 H   0  0  0  0  0  0  0  0  0  0  0  0
    0.6500   -2.2690    0.5930 H   0  0  0  0  0  0  0  0  0  0  0  0
   -0.7040   -1.9660    1.7070 H   0  0  0  0  0  0  0  0  0  0  0  0
    0.8450   -1.1190    1.9370 H   0  0  0  0  0  0  0  0  0  0  0  0
    1.2540    4.4420   -3.5690 H   0  0  0  0  0  0  0  0  0  0  0  0
   -0.9720    0.2510   -6.4860 H   0  0  0  0  0  0  0  0  0  0  0  0
   -3.4060    7.2610   -8.4040 H   0  0  0  0  0  0  0  0  0  0  0  0
   -7.2350    4.7790   -6.4820 H   0  0  0  0  0  0  0  0  0  0  0  0
    2.3430    3.9950    2.2880 H   0  0  0  0  0  0  0  0  0  0  0  0
    1.3230    4.7730    1.0540 H   0  0  0  0  0  0  0  0  0  0  0  0
    3.0320    4.4220    0.7040 H   0  0  0  0  0  0  0  0  0  0  0  0
   -3.3650    1.9080   -7.3550 H   0  0  0  0  0  0  0  0  0  0  0  0
   -2.4010    0.8310   -8.3950 H   0  0  0  0  0  0  0  0  0  0  0  0
   -1.6560    2.2820   -7.6810 H   0  0  0  0  0  0  0  0  0  0  0  0
   -3.9610   -0.0370   -5.8670 H   0  0  0  0  0  0  0  0  0  0  0  0
   -2.6690   -1.0700   -5.2100 H   0  0  0  0  0  0  0  0  0  0  0  0
   -3.0280   -1.0940   -6.9530 H   0  0  0  0  0  0  0  0  0  0  0  0
   -5.7190    7.9010   -8.9920 H   0  0  0  0  0  0  0  0  0  0  0  0
   -7.6300    6.6600   -8.0350 H   0  0  0  0  0  0  0  0  0  0  0  0
  1  6  1  0  0  0  0
  1  9  2  0  0  0  0
  1 10  2  0  0  0  0
  1 21  1  0  0  0  0
  2  3  1  0  0  0  0
  2  8  1  0  0  0  0
  2 13  1  0  0  0  0
  3  5  1  0  0  0  0
  3 15  2  0  0  0  0
  4  6  1  0  0  0  0
  4 11  1  0  0  0  0
  4 12  2  0  0  0  0
  5  7  2  0  0  0  0
  5 17  1  0  0  0  0
  7 14  1  0  0  0  0
  7 32  1  0  0  0  0
  8 16  1  0  0  0  0
  8 33  1  0  0  0  0
  8 34  1  0  0  0  0
 11 20  2  0  0  0  0
 11 23  1  0  0  0  0
 12 16  1  0  0  0  0
 12 35  1  0  0  0  0
 13 24  1  0  0  0  0
 13 36  1  0  0  0  0
 13 37  1  0  0  0  0
 14 18  2  0  0  0  0
 14 25  1  0  0  0  0
 16 22  2  0  0  0  0
 17 19  2  0  0  0  0
 17 38  1  0  0  0  0
 18 19  1  0  0  0  0
 18 26  1  0  0  0  0
 19 39  1  0  0  0  0
 20 22  1  0  0  0  0
 20 40  1  0  0  0  0
 21 41  1  0  0  0  0
 21 42  1  0  0  0  0
 21 43  1  0  0  0  0
 22 44  1  0  0  0  0
 23 27  1  0  0  0  0
 24 28  1  0  0  0  0
 24 29  1  0  0  0  0
 24 45  1  0  0  0  0
 25 30  2  0  0  0  0
 25 46  1  0  0  0  0
 26 31  2  0  0  0  0
 26 47  1  0  0  0  0
 27 48  1  0  0  0  0
 27 49  1  0  0  0  0
 27 50  1  0  0  0  0
 28 51  1  0  0  0  0
 28 52  1  0  0  0  0
 28 53  1  0  0  0  0
 29 54  1  0  0  0  0
 29 55  1  0  0  0  0
 29 56  1  0  0  0  0
 30 31  1  0  0  0  0
 30 57  1  0  0  0  0
 31 58  1  0  0  0  0
M  END
>  <$CLUSTER>
371

>  <INDEX>
242825

$$$$
Comgenex CGX-0819868
  MOE2020           3D

 55 56  0  0  0  0  0  0  0  0999 V2000
   -0.4170   -0.1970    0.1520 S   0  0  0  0  0  0  0  0  0  0  0  0
    1.1410    1.4680   -1.1520 C   0  0  0  0  0  0  0  0  0  0  0  0
   -0.8030    2.5400   -5.1580 N   0  0  0  0  0  0  0  0  0  0  0  0
    1.0590    0.3570   -0.2730 O   0  0  0  0  0  0  0  0  0  0  0  0
   -1.8360    1.6230   -4.8930 C   0  0  0  0  0  0  0  0  0  0  0  0
   -1.0610   -0.7830   -1.0060 O   0  0  0  0  0  0  0  0  0  0  0  0
   -1.0790    0.7880    0.9820 O   0  0  0  0  0  0  0  0  0  0  0  0
    0.5590    2.1440   -4.8440 C   0  0  0  0  0  0  0  0  0  0  0  0
    1.4760    2.7090   -0.6450 C   0  0  0  0  0  0  0  0  0  0  0  0
    0.8290    1.2530   -2.4920 C   0  0  0  0  0  0  0  0  0  0  0  0
    0.8790    2.3380   -3.3670 C   0  0  0  0  0  0  0  0  0  0  0  0
   -1.6460    0.5290   -4.3540 O   0  0  0  0  0  0  0  0  0  0  0  0
   -3.2390    2.0130   -5.2840 C   0  0  0  0  0  0  0  0  0  0  0  0
    1.5220    3.7920   -1.5380 C   0  0  0  0  0  0  0  0  0  0  0  0
   -1.0370    3.8660   -5.8080 C   0  0  0  0  0  0  0  0  0  0  0  0
    0.1480   -1.5150    1.1980 C   0  0  0  0  0  0  0  0  0  0  0  0
    1.2210    3.6030   -2.8900 C   0  0  0  0  0  0  0  0  0  0  0  0
   -4.2930    1.0360   -4.9940 C   0  0  0  0  0  0  0  0  0  0  0  0
    1.7700    2.7830    0.7130 O   0  0  0  0  0  0  0  0  0  0  0  0
   -5.6800    1.4650   -5.4020 C   0  0  0  0  0  0  0  0  0  0  0  0
   -0.6470    3.8210   -7.2870 C   0  0  0  0  0  0  0  0  0  0  0  0
   -0.3340    5.0180   -5.0870 C   0  0  0  0  0  0  0  0  0  0  0  0
    2.1390    4.0700    1.2200 C   0  0  0  0  0  0  0  0  0  0  0  0
   -6.1530    1.2100   -6.6970 C   0  0  0  0  0  0  0  0  0  0  0  0
   -6.4810    2.2090   -4.5240 C   0  0  0  0  0  0  0  0  0  0  0  0
   -7.4130    1.6590   -7.0930 C   0  0  0  0  0  0  0  0  0  0  0  0
   -7.7410    2.6570   -4.9220 C   0  0  0  0  0  0  0  0  0  0  0  0
   -8.2060    2.3820   -6.2050 C   0  0  0  0  0  0  0  0  0  0  0  0
    1.2470    2.7470   -5.4360 H   0  0  0  0  0  0  0  0  0  0  0  0
    0.6880    1.0920   -5.0980 H   0  0  0  0  0  0  0  0  0  0  0  0
    0.5550    0.2700   -2.8450 H   0  0  0  0  0  0  0  0  0  0  0  0
   -3.2450    2.1970   -6.3580 H   0  0  0  0  0  0  0  0  0  0  0  0
   -3.4860    2.9340   -4.7560 H   0  0  0  0  0  0  0  0  0  0  0  0
    1.7910    4.7740   -1.1790 H   0  0  0  0  0  0  0  0  0  0  0  0
   -2.1060    4.0670   -5.7340 H   0  0  0  0  0  0  0  0  0  0  0  0
    0.6500   -2.2690    0.5930 H   0  0  0  0  0  0  0  0  0  0  0  0
   -0.7040   -1.9660    1.7070 H   0  0  0  0  0  0  0  0  0  0  0  0
    0.8450   -1.1190    1.9370 H   0  0  0  0  0  0  0  0  0  0  0  0
    1.2540    4.4420   -3.5690 H   0  0  0  0  0  0  0  0  0  0  0  0
   -4.2970    0.8500   -3.9200 H   0  0  0  0  0  0  0  0  0  0  0  0
   -4.0540    0.1130   -5.5220 H   0  0  0  0  0  0  0  0  0  0  0  0
    0.4210    3.6210   -7.3750 H   0  0  0  0  0  0  0  0  0  0  0  0
   -0.8770    4.7790   -7.7530 H   0  0  0  0  0  0  0  0  0  0  0  0
   -1.2070    3.0310   -7.7870 H   0  0  0  0  0  0  0  0  0  0  0  0
    0.7450    4.8690   -5.1300 H   0  0  0  0  0  0  0  0  0  0  0  0
   -0.6560    5.0450   -4.0460 H   0  0  0  0  0  0  0  0  0  0  0  0
   -0.5900    5.9600   -5.5710 H   0  0  0  0  0  0  0  0  0  0  0  0
    2.3430    3.9950    2.2880 H   0  0  0  0  0  0  0  0  0  0  0  0
    1.3230    4.7730    1.0540 H   0  0  0  0  0  0  0  0  0  0  0  0
    3.0320    4.4220    0.7040 H   0  0  0  0  0  0  0  0  0  0  0  0
   -5.5370    0.6610   -7.3940 H   0  0  0  0  0  0  0  0  0  0  0  0
   -6.1200    2.4370   -3.5320 H   0  0  0  0  0  0  0  0  0  0  0  0
   -7.7740    1.4460   -8.0880 H   0  0  0  0  0  0  0  0  0  0  0  0
   -8.3560    3.2180   -4.2340 H   0  0  0  0  0  0  0  0  0  0  0  0
   -9.1820    2.7290   -6.5120 H   0  0  0  0  0  0  0  0  0  0  0  0
  1  4  1  0  0  0  0
  1  6  2  0  0  0  0
  1  7  2  0  0  0  0
  1 16  1  0  0  0  0
  2  4  1  0  0  0  0
  2  9  1  0  0  0  0
  2 10  2  0  0  0  0
  3  5  1  0  0  0  0
  3  8  1  0  0  0  0
  3 15  1  0  0  0  0
  5 12  2  0  0  0  0
  5 13  1  0  0  0  0
  8 11  1  0  0  0  0
  8 29  1  0  0  0  0
  8 30  1  0  0  0  0
  9 14  2  0  0  0  0
  9 19  1  0  0  0  0
 10 11  1  0  0  0  0
 10 31  1  0  0  0  0
 11 17  2  0  0  0  0
 13 18  1  0  0  0  0
 13 32  1  0  0  0  0
 13 33  1  0  0  0  0
 14 17  1  0  0  0  0
 14 34  1  0  0  0  0
 15 21  1  0  0  0  0
 15 22  1  0  0  0  0
 15 35  1  0  0  0  0
 16 36  1  0  0  0  0
 16 37  1  0  0  0  0
 16 38  1  0  0  0  0
 17 39  1  0  0  0  0
 18 20  1  0  0  0  0
 18 40  1  0  0  0  0
 18 41  1  0  0  0  0
 19 23  1  0  0  0  0
 20 24  2  0  0  0  0
 20 25  1  0  0  0  0
 21 42  1  0  0  0  0
 21 43  1  0  0  0  0
 21 44  1  0  0  0  0
 22 45  1  0  0  0  0
 22 46  1  0  0  0  0
 22 47  1  0  0  0  0
 23 48  1  0  0  0  0
 23 49  1  0  0  0  0
 23 50  1  0  0  0  0
 24 26  1  0  0  0  0
 24 51  1  0  0  0  0
 25 27  2  0  0  0  0
 25 52  1  0  0  0  0
 26 28  2  0  0  0  0
 26 53  1  0  0  0  0
 27 28  1  0  0  0  0
 27 54  1  0  0  0  0
 28 55  1  0  0  0  0
M  END
>  <$CLUSTER>
372

>  <INDEX>
242914

$$$$
Comgenex CGX-0821210
  MOE2020           3D

 50 51  0  0  0  0  0  0  0  0999 V2000
   -1.4220    0.8780   -1.3680 S   0  0  0  0  0  0  0  0  0  0  0  0
    5.3330   -0.7940    2.7390 C   0  0  0  0  0  0  0  0  0  0  0  0
    5.1450   -2.0630    2.2390 N   0  0  0  0  0  0  0  0  0  0  0  0
    4.2060   -0.2010    3.3390 N   0  0  0  0  0  0  0  0  0  0  0  0
    8.1050   -3.6230    0.6530 C   0  0  0  0  0  0  0  0  0  0  0  0
    7.3070   -2.6800    1.3090 C   0  0  0  0  0  0  0  0  0  0  0  0
   -0.4920   -0.4040   -0.9770 O   0  0  0  0  0  0  0  0  0  0  0  0
   -0.5810    1.9930   -1.7540 O   0  0  0  0  0  0  0  0  0  0  0  0
   -2.4940    1.0170   -0.4030 O   0  0  0  0  0  0  0  0  0  0  0  0
    5.9680   -2.9650    1.5930 C   0  0  0  0  0  0  0  0  0  0  0  0
    6.4320   -0.2410    2.6400 O   0  0  0  0  0  0  0  0  0  0  0  0
    7.5760   -4.8550    0.2770 C   0  0  0  0  0  0  0  0  0  0  0  0
    2.9290   -0.8610    3.5500 C   0  0  0  0  0  0  0  0  0  0  0  0
    6.2450   -5.1490    0.5560 C   0  0  0  0  0  0  0  0  0  0  0  0
    0.3090   -0.4290    0.1390 C   0  0  0  0  0  0  0  0  0  0  0  0
    2.0090   -0.7100    2.3430 C   0  0  0  0  0  0  0  0  0  0  0  0
    9.3700   -3.2580    0.4240 F   0  0  0  0  0  0  0  0  0  0  0  0
   -2.1120    0.1820   -2.8480 C   0  0  0  0  0  0  0  0  0  0  0  0
    5.4450   -4.2100    1.2100 C   0  0  0  0  0  0  0  0  0  0  0  0
    8.2730   -5.8030   -0.3500 F   0  0  0  0  0  0  0  0  0  0  0  0
    1.8870   -1.7480    1.4210 C   0  0  0  0  0  0  0  0  0  0  0  0
    1.2820    0.4660    2.1640 C   0  0  0  0  0  0  0  0  0  0  0  0
    0.4320    0.6100    1.0640 C   0  0  0  0  0  0  0  0  0  0  0  0
    1.0390   -1.6070    0.3220 C   0  0  0  0  0  0  0  0  0  0  0  0
    4.3220    1.1890    3.8050 C   0  0  0  0  0  0  0  0  0  0  0  0
    4.7480    1.2610    5.2630 C   0  0  0  0  0  0  0  0  0  0  0  0
    4.8570    2.6890    5.7470 C   0  0  0  0  0  0  0  0  0  0  0  0
    5.2840    2.7620    7.2080 C   0  0  0  0  0  0  0  0  0  0  0  0
    4.2050   -2.4080    2.3730 H   0  0  0  0  0  0  0  0  0  0  0  0
    7.7270   -1.7280    1.5970 H   0  0  0  0  0  0  0  0  0  0  0  0
    2.4440   -0.4210    4.4210 H   0  0  0  0  0  0  0  0  0  0  0  0
    3.1050   -1.9220    3.7290 H   0  0  0  0  0  0  0  0  0  0  0  0
    5.8310   -6.1030    0.2670 H   0  0  0  0  0  0  0  0  0  0  0  0
   -1.3270    0.0650   -3.5950 H   0  0  0  0  0  0  0  0  0  0  0  0
   -2.8860    0.8450   -3.2350 H   0  0  0  0  0  0  0  0  0  0  0  0
   -2.5470   -0.7920   -2.6230 H   0  0  0  0  0  0  0  0  0  0  0  0
    4.4130   -4.4440    1.4240 H   0  0  0  0  0  0  0  0  0  0  0  0
    2.4480   -2.6610    1.5570 H   0  0  0  0  0  0  0  0  0  0  0  0
    1.3760    1.2700    2.8790 H   0  0  0  0  0  0  0  0  0  0  0  0
   -0.1290    1.5230    0.9300 H   0  0  0  0  0  0  0  0  0  0  0  0
    0.9460   -2.4130   -0.3910 H   0  0  0  0  0  0  0  0  0  0  0  0
    3.3550    1.6800    3.6950 H   0  0  0  0  0  0  0  0  0  0  0  0
    5.0630    1.7050    3.1950 H   0  0  0  0  0  0  0  0  0  0  0  0
    5.7190    0.7770    5.3710 H   0  0  0  0  0  0  0  0  0  0  0  0
    4.0110    0.7370    5.8720 H   0  0  0  0  0  0  0  0  0  0  0  0
    3.8860    3.1730    5.6390 H   0  0  0  0  0  0  0  0  0  0  0  0
    5.5940    3.2120    5.1380 H   0  0  0  0  0  0  0  0  0  0  0  0
    4.5530    2.2410    7.8270 H   0  0  0  0  0  0  0  0  0  0  0  0
    5.3440    3.8050    7.5170 H   0  0  0  0  0  0  0  0  0  0  0  0
    6.2600    2.2920    7.3250 H   0  0  0  0  0  0  0  0  0  0  0  0
  1  7  1  0  0  0  0
  1  8  2  0  0  0  0
  1  9  2  0  0  0  0
  1 18  1  0  0  0  0
  2  3  1  0  0  0  0
  2  4  1  0  0  0  0
  2 11  2  0  0  0  0
  3 10  1  0  0  0  0
  3 29  1  0  0  0  0
  4 13  1  0  0  0  0
  4 25  1  0  0  0  0
  5  6  2  0  0  0  0
  5 12  1  0  0  0  0
  5 17  1  0  0  0  0
  6 10  1  0  0  0  0
  6 30  1  0  0  0  0
  7 15  1  0  0  0  0
 10 19  2  0  0  0  0
 12 14  2  0  0  0  0
 12 20  1  0  0  0  0
 13 16  1  0  0  0  0
 13 31  1  0  0  0  0
 13 32  1  0  0  0  0
 14 19  1  0  0  0  0
 14 33  1  0  0  0  0
 15 23  2  0  0  0  0
 15 24  1  0  0  0  0
 16 21  1  0  0  0  0
 16 22  2  0  0  0  0
 18 34  1  0  0  0  0
 18 35  1  0  0  0  0
 18 36  1  0  0  0  0
 19 37  1  0  0  0  0
 21 24  2  0  0  0  0
 21 38  1  0  0  0  0
 22 23  1  0  0  0  0
 22 39  1  0  0  0  0
 23 40  1  0  0  0  0
 24 41  1  0  0  0  0
 25 26  1  0  0  0  0
 25 42  1  0  0  0  0
 25 43  1  0  0  0  0
 26 27  1  0  0  0  0
 26 44  1  0  0  0  0
 26 45  1  0  0  0  0
 27 28  1  0  0  0  0
 27 46  1  0  0  0  0
 27 47  1  0  0  0  0
 28 48  1  0  0  0  0
 28 49  1  0  0  0  0
 28 50  1  0  0  0  0
M  END
>  <$CLUSTER>
373

>  <INDEX>
243167

$$$$
Asinex ASN 08744822
  MOE2020           3D

 42 44  0  0  1  0  0  0  0  0999 V2000
   -1.5620    0.6880    0.3790 C   0  0  0  0  0  0  0  0  0  0  0  0
   -0.4700   -0.1700    0.3890 N   0  0  0  0  0  0  0  0  0  0  0  0
    1.1760    0.6000   -1.2530 C   0  0  0  0  0  0  0  0  0  0  0  0
    0.8970    0.3110    0.2200 C   0  0  3  0  0  0  0  0  0  0  0  0
   -2.7840    0.0860    0.5910 N   0  0  0  0  0  0  0  0  0  0  0  0
    2.3240    1.3390   -1.4440 N   0  0  0  0  0  0  0  0  0  0  0  0
   -1.4720    1.9040    0.1990 O   0  0  0  0  0  0  0  0  0  0  0  0
    0.4750    0.1950   -2.1770 O   0  0  0  0  0  0  0  0  0  0  0  0
   -4.0820    0.5760    0.6540 C   0  0  0  0  0  0  0  0  0  0  0  0
   -4.3800    1.9320    0.4930 C   0  0  0  0  0  0  0  0  0  0  0  0
    2.9300    1.8100   -2.6190 C   0  0  0  0  0  0  0  0  0  0  0  0
   -0.4990   -1.6150    0.6040 C   0  0  0  0  0  0  0  0  0  0  0  0
   -5.7050    2.3770    0.5660 C   0  0  0  0  0  0  0  0  0  0  0  0
    4.2300    2.7980   -4.9050 C   0  0  0  0  0  0  0  0  0  0  0  0
   -6.0610    3.6560    0.4190 F   0  0  0  0  0  0  0  0  0  0  0  0
    4.9040    3.3010   -5.9390 F   0  0  0  0  0  0  0  0  0  0  0  0
    2.4100    1.5590   -3.8920 C   0  0  0  0  0  0  0  0  0  0  0  0
    4.1090    2.5620   -2.5060 C   0  0  0  0  0  0  0  0  0  0  0  0
    4.7550    3.0530   -3.6420 C   0  0  0  0  0  0  0  0  0  0  0  0
    3.0600    2.0520   -5.0290 C   0  0  0  0  0  0  0  0  0  0  0  0
    1.7610   -0.8400    0.7320 C   0  0  0  0  0  0  0  0  0  0  0  0
    0.9350   -2.0740    0.3810 C   0  0  0  0  0  0  0  0  0  0  0  0
   -6.4530    0.1220    0.9620 C   0  0  0  0  0  0  0  0  0  0  0  0
   -5.1310   -0.3240    0.8890 C   0  0  0  0  0  0  0  0  0  0  0  0
   -6.7390    1.4740    0.8000 C   0  0  0  0  0  0  0  0  0  0  0  0
    1.0930    1.2410    0.7540 H   0  0  0  0  0  0  0  0  0  0  0  0
   -2.7230   -0.9130    0.7280 H   0  0  0  0  0  0  0  0  0  0  0  0
    2.8120    1.5830   -0.5940 H   0  0  0  0  0  0  0  0  0  0  0  0
   -3.5840    2.6390    0.3110 H   0  0  0  0  0  0  0  0  0  0  0  0
   -1.1700   -2.0950   -0.1080 H   0  0  0  0  0  0  0  0  0  0  0  0
   -0.8220   -1.8450    1.6190 H   0  0  0  0  0  0  0  0  0  0  0  0
    1.5030    0.9820   -3.9980 H   0  0  0  0  0  0  0  0  0  0  0  0
    4.5220    2.7630   -1.5290 H   0  0  0  0  0  0  0  0  0  0  0  0
    5.6620    3.6310   -3.5400 H   0  0  0  0  0  0  0  0  0  0  0  0
    2.6520    1.8530   -6.0090 H   0  0  0  0  0  0  0  0  0  0  0  0
    1.9150   -0.7650    1.8080 H   0  0  0  0  0  0  0  0  0  0  0  0
    2.7270   -0.8590    0.2270 H   0  0  0  0  0  0  0  0  0  0  0  0
    1.0940   -2.3670   -0.6570 H   0  0  0  0  0  0  0  0  0  0  0  0
    1.1840   -2.9090    1.0360 H   0  0  0  0  0  0  0  0  0  0  0  0
   -7.2520   -0.5820    1.1440 H   0  0  0  0  0  0  0  0  0  0  0  0
   -4.9150   -1.3750    1.0150 H   0  0  0  0  0  0  0  0  0  0  0  0
   -7.7600    1.8220    0.8560 H   0  0  0  0  0  0  0  0  0  0  0  0
  1  2  1  0  0  0  0
  1  5  1  0  0  0  0
  1  7  2  0  0  0  0
  2  4  1  0  0  0  0
  2 12  1  0  0  0  0
  3  4  1  0  0  0  0
  3  6  1  0  0  0  0
  3  8  2  0  0  0  0
  4 21  1  0  0  0  0
  4 26  1  0  0  0  0
  5  9  1  0  0  0  0
  5 27  1  0  0  0  0
  6 11  1  0  0  0  0
  6 28  1  0  0  0  0
  9 10  2  0  0  0  0
  9 24  1  0  0  0  0
 10 13  1  0  0  0  0
 10 29  1  0  0  0  0
 11 17  1  0  0  0  0
 11 18  2  0  0  0  0
 12 22  1  0  0  0  0
 12 30  1  0  0  0  0
 12 31  1  0  0  0  0
 13 15  1  0  0  0  0
 13 25  2  0  0  0  0
 14 16  1  0  0  0  0
 14 19  2  0  0  0  0
 14 20  1  0  0  0  0
 17 20  2  0  0  0  0
 17 32  1  0  0  0  0
 18 19  1  0  0  0  0
 18 33  1  0  0  0  0
 19 34  1  0  0  0  0
 20 35  1  0  0  0  0
 21 22  1  0  0  0  0
 21 36  1  0  0  0  0
 21 37  1  0  0  0  0
 22 38  1  0  0  0  0
 22 39  1  0  0  0  0
 23 24  2  0  0  0  0
 23 25  1  0  0  0  0
 23 40  1  0  0  0  0
 24 41  1  0  0  0  0
 25 42  1  0  0  0  0
M  END
>  <$CLUSTER>
374

>  <INDEX>
168970

$$$$
Comgenex CGX-3032153
  MOE2020           3D

 48 50  0  0  0  0  0  0  0  0999 V2000
    0.1790   -1.0870    1.2610 C   0  0  0  0  0  0  0  0  0  0  0  0
    0.7680   -0.1550    0.3990 N   0  0  0  0  0  0  0  0  0  0  0  0
    2.1100   -0.0650    0.6110 N   0  0  0  0  0  0  0  0  0  0  0  0
    1.2420   -1.7450    1.8600 C   0  0  0  0  0  0  0  0  0  0  0  0
    2.3890   -1.0660    1.4390 C   0  0  0  0  0  0  0  0  0  0  0  0
   -1.2330   -1.2720    1.5420 C   0  0  0  0  0  0  0  0  0  0  0  0
    0.1790    0.6440   -0.6230 C   0  0  0  0  0  0  0  0  0  0  0  0
   -1.0360    0.2900   -1.2180 C   0  0  0  0  0  0  0  0  0  0  0  0
    3.7950   -1.3290    1.8460 C   0  0  0  0  0  0  0  0  0  0  0  0
   -2.0620   -0.3640    1.5140 O   0  0  0  0  0  0  0  0  0  0  0  0
   -1.5930   -2.5620    1.8770 N   0  0  0  0  0  0  0  0  0  0  0  0
    4.8430   -0.5060    1.4010 C   0  0  0  0  0  0  0  0  0  0  0  0
    4.1090   -2.4140    2.6790 C   0  0  0  0  0  0  0  0  0  0  0  0
   -1.5780    1.0820   -2.2350 C   0  0  0  0  0  0  0  0  0  0  0  0
    6.4580   -1.8410    2.6080 C   0  0  0  0  0  0  0  0  0  0  0  0
   -2.6330   -1.4970    4.0610 N   0  3  0  0  0  0  0  0  0  0  0  0
    6.1650   -0.7610    1.7810 C   0  0  0  0  0  0  0  0  0  0  0  0
    5.4310   -2.6670    3.0570 C   0  0  0  0  0  0  0  0  0  0  0  0
   -3.0670    0.6600   -2.9500 Cl  0  0  0  0  0  0  0  0  0  0  0  0
    7.7420   -2.0130    2.9240 F   0  0  0  0  0  0  0  0  0  0  0  0
   -2.9240   -3.0120    2.2050 C   0  0  0  0  0  0  0  0  0  0  0  0
    0.8630    1.7790   -1.0870 C   0  0  0  0  0  0  0  0  0  0  0  0
    0.3150    2.5670   -2.1020 C   0  0  0  0  0  0  0  0  0  0  0  0
   -3.2310   -2.8030    3.6760 C   0  0  0  0  0  0  0  0  0  0  0  0
   -0.9070    2.2220   -2.6730 C   0  0  0  0  0  0  0  0  0  0  0  0
   -3.2110   -1.0370    5.4250 C   0  0  0  0  0  0  0  0  0  0  0  0
   -1.1270   -1.4590    4.1500 C   0  0  0  0  0  0  0  0  0  0  0  0
    1.1940   -2.6030    2.5150 H   0  0  0  0  0  0  0  0  0  0  0  0
   -1.5570   -0.5980   -0.8910 H   0  0  0  0  0  0  0  0  0  0  0  0
   -0.8570   -3.2540    1.8940 H   0  0  0  0  0  0  0  0  0  0  0  0
    4.6250    0.3340    0.7580 H   0  0  0  0  0  0  0  0  0  0  0  0
    3.3200   -3.0610    3.0320 H   0  0  0  0  0  0  0  0  0  0  0  0
   -2.8820   -0.8770    3.3040 H   0  0  0  0  0  0  0  0  0  0  0  0
    6.9600   -0.1180    1.4320 H   0  0  0  0  0  0  0  0  0  0  0  0
    5.6560   -3.5060    3.6990 H   0  0  0  0  0  0  0  0  0  0  0  0
   -3.0070   -4.0740    1.9730 H   0  0  0  0  0  0  0  0  0  0  0  0
   -3.6450   -2.4520    1.6090 H   0  0  0  0  0  0  0  0  0  0  0  0
    1.8180    2.0440   -0.6570 H   0  0  0  0  0  0  0  0  0  0  0  0
    0.8410    3.4460   -2.4450 H   0  0  0  0  0  0  0  0  0  0  0  0
   -4.3090   -2.7830    3.8350 H   0  0  0  0  0  0  0  0  0  0  0  0
   -2.7920   -3.6060    4.2680 H   0  0  0  0  0  0  0  0  0  0  0  0
   -1.3330    2.8360   -3.4530 H   0  0  0  0  0  0  0  0  0  0  0  0
   -2.9120   -1.7410    6.2020 H   0  0  0  0  0  0  0  0  0  0  0  0
   -4.2990   -1.0020    5.3650 H   0  0  0  0  0  0  0  0  0  0  0  0
   -2.8280   -0.0450    5.6660 H   0  0  0  0  0  0  0  0  0  0  0  0
   -0.7940   -2.1140    4.9550 H   0  0  0  0  0  0  0  0  0  0  0  0
   -0.8010   -0.4390    4.3520 H   0  0  0  0  0  0  0  0  0  0  0  0
   -0.6990   -1.7970    3.2060 H   0  0  0  0  0  0  0  0  0  0  0  0
  1  2  1  0  0  0  0
  1  4  2  0  0  0  0
  1  6  1  0  0  0  0
  2  3  1  0  0  0  0
  2  7  1  0  0  0  0
  3  5  2  0  0  0  0
  4  5  1  0  0  0  0
  4 28  1  0  0  0  0
  5  9  1  0  0  0  0
  6 10  2  0  0  0  0
  6 11  1  0  0  0  0
  7  8  2  0  0  0  0
  7 22  1  0  0  0  0
  8 14  1  0  0  0  0
  8 29  1  0  0  0  0
  9 12  2  0  0  0  0
  9 13  1  0  0  0  0
 11 21  1  0  0  0  0
 11 30  1  0  0  0  0
 12 17  1  0  0  0  0
 12 31  1  0  0  0  0
 13 18  2  0  0  0  0
 13 32  1  0  0  0  0
 14 19  1  0  0  0  0
 14 25  2  0  0  0  0
 15 17  2  0  0  0  0
 15 18  1  0  0  0  0
 15 20  1  0  0  0  0
 16 24  1  0  0  0  0
 16 26  1  0  0  0  0
 16 27  1  0  0  0  0
 16 33  1  0  0  0  0
 17 34  1  0  0  0  0
 18 35  1  0  0  0  0
 21 24  1  0  0  0  0
 21 36  1  0  0  0  0
 21 37  1  0  0  0  0
 22 23  2  0  0  0  0
 22 38  1  0  0  0  0
 23 25  1  0  0  0  0
 23 39  1  0  0  0  0
 24 40  1  0  0  0  0
 24 41  1  0  0  0  0
 25 42  1  0  0  0  0
 26 43  1  0  0  0  0
 26 44  1  0  0  0  0
 26 45  1  0  0  0  0
 27 46  1  0  0  0  0
 27 47  1  0  0  0  0
 27 48  1  0  0  0  0
M  CHG  1  16   1
M  END
>  <$CLUSTER>
375

>  <INDEX>
255396

$$$$
Comgenex CGX-2069179
  MOE2020           3D

 62 65  0  0  1  0  0  0  0  0999 V2000
   -1.6450    0.0270   -0.6190 N   0  0  0  0  0  0  0  0  0  0  0  0
   -2.5810   -0.5310   -1.4060 C   0  0  0  0  0  0  0  0  0  0  0  0
   -3.6250   -1.3750   -0.7190 C   0  0  0  0  0  0  0  0  0  0  0  0
   -3.5050   -1.4820    0.6410 O   0  0  0  0  0  0  0  0  0  0  0  0
   -4.5360   -2.2740    1.0310 C   0  0  0  0  0  0  0  0  0  0  0  0
   -4.6780   -2.0630   -1.1830 C   0  0  0  0  0  0  0  0  0  0  0  0
   -5.1750   -1.3910    3.2450 N   0  3  3  0  0  0  0  0  0  0  0  0
   -5.2870   -2.6590   -0.0520 C   0  0  0  0  0  0  0  0  0  0  0  0
    0.9570    0.2120    0.6870 O   0  0  0  0  0  0  0  0  0  0  0  0
   -1.4960   -0.0730    0.8410 C   0  0  0  0  0  0  0  0  0  0  0  0
   -0.5650    0.8740   -1.1480 C   0  0  0  0  0  0  0  0  0  0  0  0
   -2.6290   -0.3930   -2.6310 O   0  0  0  0  0  0  0  0  0  0  0  0
   -4.6330   -2.5470    2.4840 C   0  0  0  0  0  0  0  0  0  0  0  0
   -0.1030   -0.5920    1.2630 C   0  0  3  0  0  0  0  0  0  0  0  0
    0.8290    0.3420   -0.7490 C   0  0  3  0  0  0  0  0  0  0  0  0
   -6.7010   -1.3080    3.1640 C   0  0  0  0  0  0  0  0  0  0  0  0
   -4.7060   -1.3490    4.7000 C   0  0  0  0  0  0  0  0  0  0  0  0
   -7.1850    0.1310    3.3100 C   0  0  0  0  0  0  0  0  0  0  0  0
   -8.0250    2.7790    3.5800 C   0  0  0  0  0  0  0  0  0  0  0  0
   -8.4310    4.0490    3.6210 F   0  0  0  0  0  0  0  0  0  0  0  0
   -3.2990   -0.7640    4.7890 C   0  0  0  0  0  0  0  0  0  0  0  0
   -7.8810    1.9750    4.7090 C   0  0  0  0  0  0  0  0  0  0  0  0
   -7.7390    2.2630    2.3180 C   0  0  0  0  0  0  0  0  0  0  0  0
   -7.4540    0.6530    4.5760 C   0  0  0  0  0  0  0  0  0  0  0  0
   -7.3120    0.9420    2.1810 C   0  0  0  0  0  0  0  0  0  0  0  0
    0.0990   -2.0770    0.9530 C   0  0  0  0  0  0  0  0  0  0  0  0
    1.9240    1.2870   -1.2270 C   0  0  0  0  0  0  0  0  0  0  0  0
   -2.1840   -1.6000    4.6970 C   0  0  0  0  0  0  0  0  0  0  0  0
   -3.1200    0.6150    4.9340 C   0  0  0  0  0  0  0  0  0  0  0  0
   -0.8980   -1.0630    4.7720 C   0  0  0  0  0  0  0  0  0  0  0  0
   -1.8340    1.1490    5.0080 C   0  0  0  0  0  0  0  0  0  0  0  0
   -0.7230    0.3100    4.9290 C   0  0  0  0  0  0  0  0  0  0  0  0
   -4.9970   -2.1460   -2.2110 H   0  0  0  0  0  0  0  0  0  0  0  0
   -4.7920   -0.5740    2.7910 H   0  0  0  0  0  0  0  0  0  0  0  0
   -6.1640   -3.2890   -0.0430 H   0  0  0  0  0  0  0  0  0  0  0  0
   -2.2540   -0.7570    1.2230 H   0  0  0  0  0  0  0  0  0  0  0  0
   -1.6470    0.9150    1.2760 H   0  0  0  0  0  0  0  0  0  0  0  0
   -0.6830    1.8830   -0.7540 H   0  0  0  0  0  0  0  0  0  0  0  0
   -0.6360    0.8980   -2.2350 H   0  0  0  0  0  0  0  0  0  0  0  0
   -3.6380   -2.7800    2.8630 H   0  0  0  0  0  0  0  0  0  0  0  0
   -5.2890   -3.4040    2.6360 H   0  0  0  0  0  0  0  0  0  0  0  0
   -0.0550   -0.4930    2.3470 H   0  0  0  0  0  0  0  0  0  0  0  0
    0.9360   -0.6360   -1.2180 H   0  0  0  0  0  0  0  0  0  0  0  0
   -7.1330   -1.9110    3.9630 H   0  0  0  0  0  0  0  0  0  0  0  0
   -7.0270   -1.6960    2.1990 H   0  0  0  0  0  0  0  0  0  0  0  0
   -4.7000   -2.3610    5.1050 H   0  0  0  0  0  0  0  0  0  0  0  0
   -5.3900   -0.7290    5.2800 H   0  0  0  0  0  0  0  0  0  0  0  0
   -8.1000    2.3750    5.6880 H   0  0  0  0  0  0  0  0  0  0  0  0
   -7.8480    2.8870    1.4430 H   0  0  0  0  0  0  0  0  0  0  0  0
   -7.3320    0.0340    5.4530 H   0  0  0  0  0  0  0  0  0  0  0  0
   -7.0800    0.5470    1.2030 H   0  0  0  0  0  0  0  0  0  0  0  0
    0.0600   -2.2320   -0.1250 H   0  0  0  0  0  0  0  0  0  0  0  0
   -0.6890   -2.6590    1.4320 H   0  0  0  0  0  0  0  0  0  0  0  0
    1.0690   -2.3980    1.3310 H   0  0  0  0  0  0  0  0  0  0  0  0
    1.8010    2.2580   -0.7470 H   0  0  0  0  0  0  0  0  0  0  0  0
    1.8560    1.4050   -2.3080 H   0  0  0  0  0  0  0  0  0  0  0  0
    2.8990    0.8750   -0.9670 H   0  0  0  0  0  0  0  0  0  0  0  0
   -2.3170   -2.6640    4.5680 H   0  0  0  0  0  0  0  0  0  0  0  0
   -3.9790    1.2670    4.9890 H   0  0  0  0  0  0  0  0  0  0  0  0
   -0.0380   -1.7130    4.7080 H   0  0  0  0  0  0  0  0  0  0  0  0
   -1.6980    2.2140    5.1270 H   0  0  0  0  0  0  0  0  0  0  0  0
    0.2720    0.7240    4.9890 H   0  0  0  0  0  0  0  0  0  0  0  0
  1  2  1  0  0  0  0
  1 10  1  0  0  0  0
  1 11  1  0  0  0  0
  2  3  1  0  0  0  0
  2 12  2  0  0  0  0
  3  4  1  0  0  0  0
  3  6  2  0  0  0  0
  4  5  1  0  0  0  0
  5  8  2  0  0  0  0
  5 13  1  0  0  0  0
  6  8  1  0  0  0  0
  6 33  1  0  0  0  0
  7 13  1  0  0  0  0
  7 16  1  0  0  0  0
  7 17  1  0  0  0  0
  7 34  1  0  0  0  0
  8 35  1  0  0  0  0
  9 14  1  0  0  0  0
  9 15  1  0  0  0  0
 10 14  1  0  0  0  0
 10 36  1  0  0  0  0
 10 37  1  0  0  0  0
 11 15  1  0  0  0  0
 11 38  1  0  0  0  0
 11 39  1  0  0  0  0
 13 40  1  0  0  0  0
 13 41  1  0  0  0  0
 14 26  1  0  0  0  0
 14 42  1  0  0  0  0
 15 27  1  0  0  0  0
 15 43  1  0  0  0  0
 16 18  1  0  0  0  0
 16 44  1  0  0  0  0
 16 45  1  0  0  0  0
 17 21  1  0  0  0  0
 17 46  1  0  0  0  0
 17 47  1  0  0  0  0
 18 24  2  0  0  0  0
 18 25  1  0  0  0  0
 19 20  1  0  0  0  0
 19 22  2  0  0  0  0
 19 23  1  0  0  0  0
 21 28  2  0  0  0  0
 21 29  1  0  0  0  0
 22 24  1  0  0  0  0
 22 48  1  0  0  0  0
 23 25  2  0  0  0  0
 23 49  1  0  0  0  0
 24 50  1  0  0  0  0
 25 51  1  0  0  0  0
 26 52  1  0  0  0  0
 26 53  1  0  0  0  0
 26 54  1  0  0  0  0
 27 55  1  0  0  0  0
 27 56  1  0  0  0  0
 27 57  1  0  0  0  0
 28 30  1  0  0  0  0
 28 58  1  0  0  0  0
 29 31  2  0  0  0  0
 29 59  1  0  0  0  0
 30 32  2  0  0  0  0
 30 60  1  0  0  0  0
 31 32  1  0  0  0  0
 31 61  1  0  0  0  0
 32 62  1  0  0  0  0
M  CHG  1   7   1
M  END
>  <$CLUSTER>
376

>  <INDEX>
244939

$$$$
Comgenex CGX-2100130
  MOE2020           3D

 53 55  0  0  0  0  0  0  0  0999 V2000
   -0.1750    3.8940    1.5760 C   0  0  0  0  0  0  0  0  0  0  0  0
   -0.5820    2.6300    1.9220 N   0  0  0  0  0  0  0  0  0  0  0  0
    0.4990   -0.6450   -0.8220 C   0  0  0  0  0  0  0  0  0  0  0  0
    0.3760    1.8880    1.4520 C   0  0  0  0  0  0  0  0  0  0  0  0
   -0.9240    5.1040    1.8930 C   0  0  0  0  0  0  0  0  0  0  0  0
    1.0170    3.8330    0.8980 C   0  0  0  0  0  0  0  0  0  0  0  0
   -0.1640   -0.2630    0.3480 N   0  0  0  0  0  0  0  0  0  0  0  0
    1.9780   -0.3550   -0.8910 C   0  0  0  0  0  0  0  0  0  0  0  0
    1.3810    2.5250    0.8030 O   0  0  0  0  0  0  0  0  0  0  0  0
    2.5480   -0.2120   -2.1470 C   0  0  0  0  0  0  0  0  0  0  0  0
    0.4860    0.3720    1.5030 C   0  0  0  0  0  0  0  0  0  0  0  0
    3.9130    0.0580   -2.2560 C   0  0  0  0  0  0  0  0  0  0  0  0
   -0.0530   -1.2040   -1.7730 O   0  0  0  0  0  0  0  0  0  0  0  0
    2.7440   -0.2420    0.2640 C   0  0  0  0  0  0  0  0  0  0  0  0
   -0.5460    6.2260    1.5700 O   0  0  0  0  0  0  0  0  0  0  0  0
   -2.0910    4.8690    2.5860 N   0  0  0  0  0  0  0  0  0  0  0  0
    4.6940    0.1800   -1.1080 C   0  0  0  0  0  0  0  0  0  0  0  0
    4.1110    0.0280    0.1500 C   0  0  0  0  0  0  0  0  0  0  0  0
   -1.6060   -0.5100    0.4550 C   0  0  0  0  0  0  0  0  0  0  0  0
    4.5160    0.2120   -3.5300 C   0  0  0  0  0  0  0  0  0  0  0  0
   -3.0150    5.9010    3.0210 C   0  0  0  0  0  0  0  0  0  0  0  0
    6.0800    0.4520   -1.2280 C   0  0  0  0  0  0  0  0  0  0  0  0
   -1.8990   -1.8670    1.0750 C   0  0  0  0  0  0  0  0  0  0  0  0
   -2.6030    6.4860    4.3590 C   0  0  0  0  0  0  0  0  0  0  0  0
   -3.5680    7.5600    4.8310 C   0  0  0  0  0  0  0  0  0  0  0  0
   -3.3850   -2.1310    1.1770 C   0  0  0  0  0  0  0  0  0  0  0  0
    5.8810    0.4810   -3.6360 C   0  0  0  0  0  0  0  0  0  0  0  0
    6.6610    0.6010   -2.4880 C   0  0  0  0  0  0  0  0  0  0  0  0
    1.5690    4.6750    0.5080 H   0  0  0  0  0  0  0  0  0  0  0  0
    1.9400   -0.3090   -3.0340 H   0  0  0  0  0  0  0  0  0  0  0  0
    0.0100    0.0150    2.4160 H   0  0  0  0  0  0  0  0  0  0  0  0
    1.5400    0.0950    1.5110 H   0  0  0  0  0  0  0  0  0  0  0  0
    2.2890   -0.3610    1.2360 H   0  0  0  0  0  0  0  0  0  0  0  0
   -2.3200    3.9110    2.8070 H   0  0  0  0  0  0  0  0  0  0  0  0
    4.7180    0.1190    1.0390 H   0  0  0  0  0  0  0  0  0  0  0  0
   -2.0450   -0.4750   -0.5420 H   0  0  0  0  0  0  0  0  0  0  0  0
   -2.0520    0.2660    1.0770 H   0  0  0  0  0  0  0  0  0  0  0  0
    3.9160    0.1210   -4.4230 H   0  0  0  0  0  0  0  0  0  0  0  0
   -4.0110    5.4680    3.1150 H   0  0  0  0  0  0  0  0  0  0  0  0
   -3.0330    6.6970    2.2770 H   0  0  0  0  0  0  0  0  0  0  0  0
    6.6890    0.5440   -0.3410 H   0  0  0  0  0  0  0  0  0  0  0  0
   -1.4660   -1.8990    2.0750 H   0  0  0  0  0  0  0  0  0  0  0  0
   -1.4450   -2.6420    0.4580 H   0  0  0  0  0  0  0  0  0  0  0  0
   -1.6100    6.9240    4.2610 H   0  0  0  0  0  0  0  0  0  0  0  0
   -2.5760    5.6870    5.1000 H   0  0  0  0  0  0  0  0  0  0  0  0
   -3.6030    8.3650    4.0970 H   0  0  0  0  0  0  0  0  0  0  0  0
   -3.2310    7.9560    5.7890 H   0  0  0  0  0  0  0  0  0  0  0  0
   -4.5630    7.1300    4.9450 H   0  0  0  0  0  0  0  0  0  0  0  0
   -3.8490   -1.3610    1.7930 H   0  0  0  0  0  0  0  0  0  0  0  0
   -3.5500   -3.1080    1.6310 H   0  0  0  0  0  0  0  0  0  0  0  0
   -3.8260   -2.1140    0.1800 H   0  0  0  0  0  0  0  0  0  0  0  0
    6.3340    0.5960   -4.6100 H   0  0  0  0  0  0  0  0  0  0  0  0
    7.7170    0.8100   -2.5730 H   0  0  0  0  0  0  0  0  0  0  0  0
  1  2  1  0  0  0  0
  1  5  1  0  0  0  0
  1  6  2  0  0  0  0
  2  4  2  0  0  0  0
  3  7  1  0  0  0  0
  3  8  1  0  0  0  0
  3 13  2  0  0  0  0
  4  9  1  0  0  0  0
  4 11  1  0  0  0  0
  5 15  2  0  0  0  0
  5 16  1  0  0  0  0
  6  9  1  0  0  0  0
  6 29  1  0  0  0  0
  7 11  1  0  0  0  0
  7 19  1  0  0  0  0
  8 10  2  0  0  0  0
  8 14  1  0  0  0  0
 10 12  1  0  0  0  0
 10 30  1  0  0  0  0
 11 31  1  0  0  0  0
 11 32  1  0  0  0  0
 12 17  2  0  0  0  0
 12 20  1  0  0  0  0
 14 18  2  0  0  0  0
 14 33  1  0  0  0  0
 16 21  1  0  0  0  0
 16 34  1  0  0  0  0
 17 18  1  0  0  0  0
 17 22  1  0  0  0  0
 18 35  1  0  0  0  0
 19 23  1  0  0  0  0
 19 36  1  0  0  0  0
 19 37  1  0  0  0  0
 20 27  2  0  0  0  0
 20 38  1  0  0  0  0
 21 24  1  0  0  0  0
 21 39  1  0  0  0  0
 21 40  1  0  0  0  0
 22 28  2  0  0  0  0
 22 41  1  0  0  0  0
 23 26  1  0  0  0  0
 23 42  1  0  0  0  0
 23 43  1  0  0  0  0
 24 25  1  0  0  0  0
 24 44  1  0  0  0  0
 24 45  1  0  0  0  0
 25 46  1  0  0  0  0
 25 47  1  0  0  0  0
 25 48  1  0  0  0  0
 26 49  1  0  0  0  0
 26 50  1  0  0  0  0
 26 51  1  0  0  0  0
 27 28  1  0  0  0  0
 27 52  1  0  0  0  0
 28 53  1  0  0  0  0
M  END
>  <$CLUSTER>
377

>  <INDEX>
245612

$$$$
Comgenex CGX-2107108
  MOE2020           3D

 51 52  0  0  0  0  0  0  0  0999 V2000
    1.1150   -2.1820    3.3530 C   0  0  0  0  0  0  0  0  0  0  0  0
    1.3600   -1.3480    2.2800 N   0  0  0  0  0  0  0  0  0  0  0  0
    0.1050   -0.3980   -1.0560 C   0  0  0  0  0  0  0  0  0  0  0  0
    0.4630   -0.3980    2.2750 C   0  0  0  0  0  0  0  0  0  0  0  0
    0.0310   -1.8500    4.1350 C   0  0  0  0  0  0  0  0  0  0  0  0
    1.9740   -3.3380    3.6110 C   0  0  0  0  0  0  0  0  0  0  0  0
   -0.7190   -0.4420    3.5130 S   0  0  0  0  0  0  0  0  0  0  0  0
   -0.3900    0.2970    0.0570 N   0  0  0  0  0  0  0  0  0  0  0  0
    1.4200   -0.8000   -0.9820 N   0  0  0  0  0  0  0  0  0  0  0  0
    0.4150    0.6960    1.2210 C   0  0  0  0  0  0  0  0  0  0  0  0
    2.7150   -2.6400   -3.9210 C   0  0  0  0  0  0  0  0  0  0  0  0
   -0.5710   -0.6580   -2.0550 O   0  0  0  0  0  0  0  0  0  0  0  0
    2.2570   -1.4870   -1.8370 C   0  0  0  0  0  0  0  0  0  0  0  0
    1.8320   -1.9460   -3.0870 C   0  0  0  0  0  0  0  0  0  0  0  0
    4.0270   -2.8790   -3.5180 C   0  0  0  0  0  0  0  0  0  0  0  0
    1.8180   -4.1220    4.5390 O   0  0  0  0  0  0  0  0  0  0  0  0
    4.4600   -2.4250   -2.2750 C   0  0  0  0  0  0  0  0  0  0  0  0
    2.9800   -3.4600    2.7060 O   0  0  0  0  0  0  0  0  0  0  0  0
    3.5810   -1.7330   -1.4400 C   0  0  0  0  0  0  0  0  0  0  0  0
   -1.8080    0.6680    0.0820 C   0  0  0  0  0  0  0  0  0  0  0  0
    2.2420   -3.1240   -5.2560 C   0  0  0  0  0  0  0  0  0  0  0  0
    4.9650   -3.6190   -4.4120 C   0  0  0  0  0  0  0  0  0  0  0  0
    3.8840   -4.5410    2.8400 C   0  0  0  0  0  0  0  0  0  0  0  0
   -2.0360    2.0580   -0.4900 C   0  0  0  0  0  0  0  0  0  0  0  0
    4.9090   -4.4660    1.7270 C   0  0  0  0  0  0  0  0  0  0  0  0
   -3.4970    2.4500   -0.4560 C   0  0  0  0  0  0  0  0  0  0  0  0
   -0.2960   -2.3950    5.0080 H   0  0  0  0  0  0  0  0  0  0  0  0
    1.8680   -0.5350   -0.1160 H   0  0  0  0  0  0  0  0  0  0  0  0
    1.4310    0.9120    0.8900 H   0  0  0  0  0  0  0  0  0  0  0  0
   -0.0220    1.5920    1.6620 H   0  0  0  0  0  0  0  0  0  0  0  0
    0.8180   -1.7640   -3.4100 H   0  0  0  0  0  0  0  0  0  0  0  0
    5.4760   -2.6080   -1.9570 H   0  0  0  0  0  0  0  0  0  0  0  0
    3.9230   -1.3830   -0.4770 H   0  0  0  0  0  0  0  0  0  0  0  0
   -2.1600    0.6480    1.1130 H   0  0  0  0  0  0  0  0  0  0  0  0
   -2.3720   -0.0540   -0.5080 H   0  0  0  0  0  0  0  0  0  0  0  0
    1.1970   -2.8460   -5.3940 H   0  0  0  0  0  0  0  0  0  0  0  0
    2.3390   -4.2090   -5.3040 H   0  0  0  0  0  0  0  0  0  0  0  0
    2.8460   -2.6700   -6.0420 H   0  0  0  0  0  0  0  0  0  0  0  0
    4.4500   -3.8910   -5.3330 H   0  0  0  0  0  0  0  0  0  0  0  0
    5.3110   -4.5220   -3.9080 H   0  0  0  0  0  0  0  0  0  0  0  0
    5.8190   -2.9840   -4.6470 H   0  0  0  0  0  0  0  0  0  0  0  0
    3.3400   -5.4830    2.7730 H   0  0  0  0  0  0  0  0  0  0  0  0
    4.3870   -4.4800    3.8050 H   0  0  0  0  0  0  0  0  0  0  0  0
   -1.6910    2.0750   -1.5240 H   0  0  0  0  0  0  0  0  0  0  0  0
   -1.4640    2.7780    0.0960 H   0  0  0  0  0  0  0  0  0  0  0  0
    4.4040   -4.5280    0.7630 H   0  0  0  0  0  0  0  0  0  0  0  0
    5.6110   -5.2940    1.8230 H   0  0  0  0  0  0  0  0  0  0  0  0
    5.4500   -3.5220    1.7940 H   0  0  0  0  0  0  0  0  0  0  0  0
   -4.0780    1.7360   -1.0390 H   0  0  0  0  0  0  0  0  0  0  0  0
   -3.6160    3.4470   -0.8800 H   0  0  0  0  0  0  0  0  0  0  0  0
   -3.8490    2.4490    0.5750 H   0  0  0  0  0  0  0  0  0  0  0  0
  1  2  1  0  0  0  0
  1  5  2  0  0  0  0
  1  6  1  0  0  0  0
  2  4  2  0  0  0  0
  3  8  1  0  0  0  0
  3  9  1  0  0  0  0
  3 12  2  0  0  0  0
  4  7  1  0  0  0  0
  4 10  1  0  0  0  0
  5  7  1  0  0  0  0
  5 27  1  0  0  0  0
  6 16  2  0  0  0  0
  6 18  1  0  0  0  0
  8 10  1  0  0  0  0
  8 20  1  0  0  0  0
  9 13  1  0  0  0  0
  9 28  1  0  0  0  0
 10 29  1  0  0  0  0
 10 30  1  0  0  0  0
 11 14  2  0  0  0  0
 11 15  1  0  0  0  0
 11 21  1  0  0  0  0
 13 14  1  0  0  0  0
 13 19  2  0  0  0  0
 14 31  1  0  0  0  0
 15 17  2  0  0  0  0
 15 22  1  0  0  0  0
 17 19  1  0  0  0  0
 17 32  1  0  0  0  0
 18 23  1  0  0  0  0
 19 33  1  0  0  0  0
 20 24  1  0  0  0  0
 20 34  1  0  0  0  0
 20 35  1  0  0  0  0
 21 36  1  0  0  0  0
 21 37  1  0  0  0  0
 21 38  1  0  0  0  0
 22 39  1  0  0  0  0
 22 40  1  0  0  0  0
 22 41  1  0  0  0  0
 23 25  1  0  0  0  0
 23 42  1  0  0  0  0
 23 43  1  0  0  0  0
 24 26  1  0  0  0  0
 24 44  1  0  0  0  0
 24 45  1  0  0  0  0
 25 46  1  0  0  0  0
 25 47  1  0  0  0  0
 25 48  1  0  0  0  0
 26 49  1  0  0  0  0
 26 50  1  0  0  0  0
 26 51  1  0  0  0  0
M  END
>  <$CLUSTER>
378

>  <INDEX>
246740

$$$$
Comgenex CGX-0785577
  MOE2020           3D

 60 63  0  0  0  0  0  0  0  0999 V2000
   -0.2150    0.2870   -0.2080 N   0  0  0  0  0  0  0  0  0  0  0  0
    0.6580    1.2080    0.3830 C   0  0  0  0  0  0  0  0  0  0  0  0
    0.8730   -0.6200   -2.2440 C   0  0  0  0  0  0  0  0  0  0  0  0
   -1.6160   -2.5130   -3.6090 C   0  0  0  0  0  0  0  0  0  0  0  0
    0.5630   -1.9120   -2.5390 N   0  0  0  0  0  0  0  0  0  0  0  0
   -0.2750    0.1960   -1.6680 C   0  0  0  0  0  0  0  0  0  0  0  0
   -2.3750   -1.4300   -3.9450 N   0  0  0  0  0  0  0  0  0  0  0  0
   -1.0950   -0.5680    0.5600 C   0  0  0  0  0  0  0  0  0  0  0  0
   -0.7660   -2.5680   -2.3500 C   0  0  0  0  0  0  0  0  0  0  0  0
   -0.5600   -1.7310    1.3600 C   0  0  0  0  0  0  0  0  0  0  0  0
   -1.4410   -1.9870    0.1790 C   0  0  0  0  0  0  0  0  0  0  0  0
    0.6300    1.2800    1.8900 C   0  0  0  0  0  0  0  0  0  0  0  0
   -3.0080   -1.6840   -5.1360 C   0  0  0  0  0  0  0  0  0  0  0  0
   -1.7350   -3.4540   -4.5920 C   0  0  0  0  0  0  0  0  0  0  0  0
   -2.6260   -2.9370   -5.5600 C   0  0  0  0  0  0  0  0  0  0  0  0
    1.4250    1.9370   -0.2510 O   0  0  0  0  0  0  0  0  0  0  0  0
    1.6000   -2.8150   -3.1210 C   0  0  0  0  0  0  0  0  0  0  0  0
    2.0110   -0.1720   -2.4000 O   0  0  0  0  0  0  0  0  0  0  0  0
    1.0340    2.4720    2.4800 C   0  0  0  0  0  0  0  0  0  0  0  0
    0.2360    0.1960    2.6610 C   0  0  0  0  0  0  0  0  0  0  0  0
    2.3660   -3.5570   -2.0370 C   0  0  0  0  0  0  0  0  0  0  0  0
    1.0300    2.5850    3.8720 C   0  0  0  0  0  0  0  0  0  0  0  0
    0.2340    0.3130    4.0530 C   0  0  0  0  0  0  0  0  0  0  0  0
    0.6280    1.5060    4.6580 C   0  0  0  0  0  0  0  0  0  0  0  0
   -2.5270   -0.2070   -3.1890 C   0  0  0  0  0  0  0  0  0  0  0  0
    0.6190    1.6310    6.1460 C   0  0  0  0  0  0  0  0  0  0  0  0
    2.0280   -4.8750   -1.7120 C   0  0  0  0  0  0  0  0  0  0  0  0
    3.4050   -2.9210   -1.3480 C   0  0  0  0  0  0  0  0  0  0  0  0
    4.1180   -3.6070   -0.3610 C   0  0  0  0  0  0  0  0  0  0  0  0
    2.7420   -5.5600   -0.7240 C   0  0  0  0  0  0  0  0  0  0  0  0
    3.7880   -4.9270   -0.0520 C   0  0  0  0  0  0  0  0  0  0  0  0
   -0.2330    1.2030   -2.0840 H   0  0  0  0  0  0  0  0  0  0  0  0
   -1.2160   -0.2750   -1.9510 H   0  0  0  0  0  0  0  0  0  0  0  0
   -1.6820    0.3280    0.7620 H   0  0  0  0  0  0  0  0  0  0  0  0
   -0.6070   -3.6120   -2.0790 H   0  0  0  0  0  0  0  0  0  0  0  0
   -1.2970   -2.0600   -1.5450 H   0  0  0  0  0  0  0  0  0  0  0  0
   -0.9330   -1.9160    2.3670 H   0  0  0  0  0  0  0  0  0  0  0  0
    0.5000   -1.9820    1.3130 H   0  0  0  0  0  0  0  0  0  0  0  0
   -1.0230   -2.4250   -0.7270 H   0  0  0  0  0  0  0  0  0  0  0  0
   -2.4550   -2.3580    0.3270 H   0  0  0  0  0  0  0  0  0  0  0  0
   -3.6860   -1.0190   -5.6500 H   0  0  0  0  0  0  0  0  0  0  0  0
   -1.2410   -4.4140   -4.6240 H   0  0  0  0  0  0  0  0  0  0  0  0
   -2.9470   -3.4330   -6.4640 H   0  0  0  0  0  0  0  0  0  0  0  0
    2.3010   -2.2190   -3.7050 H   0  0  0  0  0  0  0  0  0  0  0  0
    1.1120   -3.5420   -3.7710 H   0  0  0  0  0  0  0  0  0  0  0  0
    1.3480    3.3040    1.8670 H   0  0  0  0  0  0  0  0  0  0  0  0
   -0.0660   -0.7280    2.1900 H   0  0  0  0  0  0  0  0  0  0  0  0
    1.3380    3.5080    4.3400 H   0  0  0  0  0  0  0  0  0  0  0  0
   -0.0740   -0.5240    4.6630 H   0  0  0  0  0  0  0  0  0  0  0  0
   -1.9190   -0.2600   -2.2860 H   0  0  0  0  0  0  0  0  0  0  0  0
   -3.5740   -0.0770   -2.9150 H   0  0  0  0  0  0  0  0  0  0  0  0
   -2.2030    0.6380   -3.7960 H   0  0  0  0  0  0  0  0  0  0  0  0
    0.9560    2.6280    6.4290 H   0  0  0  0  0  0  0  0  0  0  0  0
    1.2870    0.8860    6.5770 H   0  0  0  0  0  0  0  0  0  0  0  0
   -0.3930    1.4700    6.5180 H   0  0  0  0  0  0  0  0  0  0  0  0
    1.2140   -5.3650   -2.2250 H   0  0  0  0  0  0  0  0  0  0  0  0
    3.6570   -1.8970   -1.5800 H   0  0  0  0  0  0  0  0  0  0  0  0
    4.9250   -3.1150    0.1630 H   0  0  0  0  0  0  0  0  0  0  0  0
    2.4840   -6.5800   -0.4810 H   0  0  0  0  0  0  0  0  0  0  0  0
    4.3420   -5.4590    0.7070 H   0  0  0  0  0  0  0  0  0  0  0  0
  1  2  1  0  0  0  0
  1  6  1  0  0  0  0
  1  8  1  0  0  0  0
  2 12  1  0  0  0  0
  2 16  2  0  0  0  0
  3  5  1  0  0  0  0
  3  6  1  0  0  0  0
  3 18  2  0  0  0  0
  4  7  1  0  0  0  0
  4  9  1  0  0  0  0
  4 14  2  0  0  0  0
  5  9  1  0  0  0  0
  5 17  1  0  0  0  0
  6 32  1  0  0  0  0
  6 33  1  0  0  0  0
  7 13  1  0  0  0  0
  7 25  1  0  0  0  0
  8 10  1  0  0  0  0
  8 11  1  0  0  0  0
  8 34  1  0  0  0  0
  9 35  1  0  0  0  0
  9 36  1  0  0  0  0
 10 11  1  0  0  0  0
 10 37  1  0  0  0  0
 10 38  1  0  0  0  0
 11 39  1  0  0  0  0
 11 40  1  0  0  0  0
 12 19  2  0  0  0  0
 12 20  1  0  0  0  0
 13 15  2  0  0  0  0
 13 41  1  0  0  0  0
 14 15  1  0  0  0  0
 14 42  1  0  0  0  0
 15 43  1  0  0  0  0
 17 21  1  0  0  0  0
 17 44  1  0  0  0  0
 17 45  1  0  0  0  0
 19 22  1  0  0  0  0
 19 46  1  0  0  0  0
 20 23  2  0  0  0  0
 20 47  1  0  0  0  0
 21 27  1  0  0  0  0
 21 28  2  0  0  0  0
 22 24  2  0  0  0  0
 22 48  1  0  0  0  0
 23 24  1  0  0  0  0
 23 49  1  0  0  0  0
 24 26  1  0  0  0  0
 25 50  1  0  0  0  0
 25 51  1  0  0  0  0
 25 52  1  0  0  0  0
 26 53  1  0  0  0  0
 26 54  1  0  0  0  0
 26 55  1  0  0  0  0
 27 30  2  0  0  0  0
 27 56  1  0  0  0  0
 28 29  1  0  0  0  0
 28 57  1  0  0  0  0
 29 31  2  0  0  0  0
 29 58  1  0  0  0  0
 30 31  1  0  0  0  0
 30 59  1  0  0  0  0
 31 60  1  0  0  0  0
M  END
>  <$CLUSTER>
379

>  <INDEX>
241932

$$$$
Comgenex CGX-2135332
  MOE2020           3D

 50 52  0  0  0  0  0  0  0  0999 V2000
   -0.6020   -0.8900   -0.0950 N   0  0  0  0  0  0  0  0  0  0  0  0
   -1.1330   -2.1480   -0.6610 C   0  0  0  0  0  0  0  0  0  0  0  0
    0.2920   -0.0830   -0.8050 C   0  0  0  0  0  0  0  0  0  0  0  0
   -0.0030   -2.5300   -3.3150 N   0  0  0  0  0  0  0  0  0  0  0  0
   -0.0270   -3.1760   -0.9120 C   0  0  0  0  0  0  0  0  0  0  0  0
   -1.9720   -1.9040   -1.9210 C   0  0  0  0  0  0  0  0  0  0  0  0
    0.2190   -3.2400   -4.4630 C   0  0  0  0  0  0  0  0  0  0  0  0
   -2.2580   -2.8330    0.6280 S   0  0  0  0  0  0  0  0  0  0  0  0
    0.8630    1.0840   -0.1160 C   0  0  0  0  0  0  0  0  0  0  0  0
   -1.0320   -1.5150   -3.0920 C   0  0  0  0  0  0  0  0  0  0  0  0
    0.8230   -2.7330   -2.1250 C   0  0  0  0  0  0  0  0  0  0  0  0
    0.6590   -0.2600   -1.9630 O   0  0  0  0  0  0  0  0  0  0  0  0
    1.1060   -4.0880   -4.5910 O   0  0  0  0  0  0  0  0  0  0  0  0
    1.7790    0.9030    0.9220 C   0  0  0  0  0  0  0  0  0  0  0  0
    0.5180    2.3630   -0.5560 C   0  0  0  0  0  0  0  0  0  0  0  0
   -1.0800   -0.5970    1.2610 C   0  0  0  0  0  0  0  0  0  0  0  0
   -2.4290   -1.2550    1.4730 C   0  0  0  0  0  0  0  0  0  0  0  0
    1.0770    3.4740    0.0740 C   0  0  0  0  0  0  0  0  0  0  0  0
    2.3330    2.0200    1.5460 C   0  0  0  0  0  0  0  0  0  0  0  0
    1.9810    3.3030    1.1240 C   0  0  0  0  0  0  0  0  0  0  0  0
   -0.6940   -2.9480   -5.6270 C   0  0  0  0  0  0  0  0  0  0  0  0
    2.5750    4.4960    1.8010 C   0  0  0  0  0  0  0  0  0  0  0  0
   -0.4420   -3.7230   -6.8660 C   0  0  0  0  0  0  0  0  0  0  0  0
   -1.3740   -3.4010   -8.0000 C   0  0  0  0  0  0  0  0  0  0  0  0
   -0.4750   -4.1480   -1.1180 H   0  0  0  0  0  0  0  0  0  0  0  0
    0.6090   -3.2480   -0.0300 H   0  0  0  0  0  0  0  0  0  0  0  0
   -2.6790   -1.0950   -1.7370 H   0  0  0  0  0  0  0  0  0  0  0  0
   -2.5170   -2.8120   -2.1770 H   0  0  0  0  0  0  0  0  0  0  0  0
   -1.6250   -1.4060   -4.0000 H   0  0  0  0  0  0  0  0  0  0  0  0
   -0.5490   -0.5670   -2.8580 H   0  0  0  0  0  0  0  0  0  0  0  0
    1.3280   -1.7980   -1.8810 H   0  0  0  0  0  0  0  0  0  0  0  0
    1.5660   -3.5020   -2.3370 H   0  0  0  0  0  0  0  0  0  0  0  0
    2.0560   -0.0920    1.2380 H   0  0  0  0  0  0  0  0  0  0  0  0
   -0.1740    2.4900   -1.3750 H   0  0  0  0  0  0  0  0  0  0  0  0
   -1.1780    0.4810    1.3870 H   0  0  0  0  0  0  0  0  0  0  0  0
   -0.3680   -0.9850    1.9890 H   0  0  0  0  0  0  0  0  0  0  0  0
   -2.6300   -1.4000    2.5340 H   0  0  0  0  0  0  0  0  0  0  0  0
   -3.2280   -0.6600    1.0300 H   0  0  0  0  0  0  0  0  0  0  0  0
    0.8100    4.4690   -0.2510 H   0  0  0  0  0  0  0  0  0  0  0  0
    3.0350    1.8920    2.3570 H   0  0  0  0  0  0  0  0  0  0  0  0
   -0.5950   -1.8900   -5.8700 H   0  0  0  0  0  0  0  0  0  0  0  0
   -1.7160   -3.1530   -5.3080 H   0  0  0  0  0  0  0  0  0  0  0  0
    2.1870    5.4050    1.3410 H   0  0  0  0  0  0  0  0  0  0  0  0
    3.6600    4.4700    1.6970 H   0  0  0  0  0  0  0  0  0  0  0  0
    2.3110    4.4820    2.8590 H   0  0  0  0  0  0  0  0  0  0  0  0
   -0.5430   -4.7830   -6.6320 H   0  0  0  0  0  0  0  0  0  0  0  0
    0.5770   -3.5190   -7.1940 H   0  0  0  0  0  0  0  0  0  0  0  0
   -2.4010   -3.5980   -7.6930 H   0  0  0  0  0  0  0  0  0  0  0  0
   -1.1270   -4.0220   -8.8610 H   0  0  0  0  0  0  0  0  0  0  0  0
   -1.2700   -2.3500   -8.2680 H   0  0  0  0  0  0  0  0  0  0  0  0
  1  2  1  0  0  0  0
  1  3  1  0  0  0  0
  1 16  1  0  0  0  0
  2  5  1  0  0  0  0
  2  6  1  0  0  0  0
  2  8  1  0  0  0  0
  3  9  1  0  0  0  0
  3 12  2  0  0  0  0
  4  7  1  0  0  0  0
  4 10  1  0  0  0  0
  4 11  1  0  0  0  0
  5 11  1  0  0  0  0
  5 25  1  0  0  0  0
  5 26  1  0  0  0  0
  6 10  1  0  0  0  0
  6 27  1  0  0  0  0
  6 28  1  0  0  0  0
  7 13  2  0  0  0  0
  7 21  1  0  0  0  0
  8 17  1  0  0  0  0
  9 14  1  0  0  0  0
  9 15  2  0  0  0  0
 10 29  1  0  0  0  0
 10 30  1  0  0  0  0
 11 31  1  0  0  0  0
 11 32  1  0  0  0  0
 14 19  2  0  0  0  0
 14 33  1  0  0  0  0
 15 18  1  0  0  0  0
 15 34  1  0  0  0  0
 16 17  1  0  0  0  0
 16 35  1  0  0  0  0
 16 36  1  0  0  0  0
 17 37  1  0  0  0  0
 17 38  1  0  0  0  0
 18 20  2  0  0  0  0
 18 39  1  0  0  0  0
 19 20  1  0  0  0  0
 19 40  1  0  0  0  0
 20 22  1  0  0  0  0
 21 23  1  0  0  0  0
 21 41  1  0  0  0  0
 21 42  1  0  0  0  0
 22 43  1  0  0  0  0
 22 44  1  0  0  0  0
 22 45  1  0  0  0  0
 23 24  1  0  0  0  0
 23 46  1  0  0  0  0
 23 47  1  0  0  0  0
 24 48  1  0  0  0  0
 24 49  1  0  0  0  0
 24 50  1  0  0  0  0
M  END
>  <$CLUSTER>
380

>  <INDEX>
247600

$$$$
Comgenex CGX-2135342
  MOE2020           3D

 51 54  0  0  0  0  0  0  0  0999 V2000
   -0.6020   -0.8900   -0.0950 N   0  0  0  0  0  0  0  0  0  0  0  0
   -1.1330   -2.1480   -0.6610 C   0  0  0  0  0  0  0  0  0  0  0  0
    0.2920   -0.0830   -0.8050 C   0  0  0  0  0  0  0  0  0  0  0  0
    0.2190   -3.2400   -4.4630 C   0  0  0  0  0  0  0  0  0  0  0  0
   -0.0030   -2.5300   -3.3150 N   0  0  0  0  0  0  0  0  0  0  0  0
   -0.0270   -3.1760   -0.9120 C   0  0  0  0  0  0  0  0  0  0  0  0
   -1.9720   -1.9040   -1.9210 C   0  0  0  0  0  0  0  0  0  0  0  0
   -2.2580   -2.8330    0.6280 S   0  0  0  0  0  0  0  0  0  0  0  0
    0.8630    1.0840   -0.1160 C   0  0  0  0  0  0  0  0  0  0  0  0
   -0.6940   -2.9480   -5.6270 C   0  0  0  0  0  0  0  0  0  0  0  0
   -1.0320   -1.5150   -3.0920 C   0  0  0  0  0  0  0  0  0  0  0  0
    0.8230   -2.7330   -2.1250 C   0  0  0  0  0  0  0  0  0  0  0  0
    0.6590   -0.2600   -1.9630 O   0  0  0  0  0  0  0  0  0  0  0  0
    1.1060   -4.0880   -4.5910 O   0  0  0  0  0  0  0  0  0  0  0  0
    1.7790    0.9030    0.9220 C   0  0  0  0  0  0  0  0  0  0  0  0
    0.5180    2.3630   -0.5560 C   0  0  0  0  0  0  0  0  0  0  0  0
   -0.8770   -3.9500   -6.5780 C   0  0  0  0  0  0  0  0  0  0  0  0
   -1.3220   -1.7170   -5.7620 C   0  0  0  0  0  0  0  0  0  0  0  0
   -1.0800   -0.5970    1.2610 C   0  0  0  0  0  0  0  0  0  0  0  0
   -2.3550   -2.4890   -7.8110 C   0  0  0  0  0  0  0  0  0  0  0  0
   -2.4290   -1.2550    1.4730 C   0  0  0  0  0  0  0  0  0  0  0  0
   -1.7130   -3.7180   -7.6710 C   0  0  0  0  0  0  0  0  0  0  0  0
   -2.1570   -1.4890   -6.8590 C   0  0  0  0  0  0  0  0  0  0  0  0
    2.3330    2.0200    1.5460 C   0  0  0  0  0  0  0  0  0  0  0  0
    1.0770    3.4740    0.0740 C   0  0  0  0  0  0  0  0  0  0  0  0
    1.9810    3.3030    1.1240 C   0  0  0  0  0  0  0  0  0  0  0  0
   -3.3760   -2.2210   -9.1460 Cl  0  0  0  0  0  0  0  0  0  0  0  0
    2.5750    4.4960    1.8010 C   0  0  0  0  0  0  0  0  0  0  0  0
   -0.4750   -4.1480   -1.1180 H   0  0  0  0  0  0  0  0  0  0  0  0
    0.6090   -3.2480   -0.0300 H   0  0  0  0  0  0  0  0  0  0  0  0
   -2.6790   -1.0950   -1.7370 H   0  0  0  0  0  0  0  0  0  0  0  0
   -2.5170   -2.8120   -2.1770 H   0  0  0  0  0  0  0  0  0  0  0  0
   -1.6250   -1.4060   -4.0000 H   0  0  0  0  0  0  0  0  0  0  0  0
   -0.5490   -0.5670   -2.8580 H   0  0  0  0  0  0  0  0  0  0  0  0
    1.3280   -1.7980   -1.8810 H   0  0  0  0  0  0  0  0  0  0  0  0
    1.5660   -3.5020   -2.3370 H   0  0  0  0  0  0  0  0  0  0  0  0
    2.0560   -0.0920    1.2380 H   0  0  0  0  0  0  0  0  0  0  0  0
   -0.1740    2.4900   -1.3750 H   0  0  0  0  0  0  0  0  0  0  0  0
   -0.3750   -4.9000   -6.4700 H   0  0  0  0  0  0  0  0  0  0  0  0
   -1.1660   -0.9420   -5.0260 H   0  0  0  0  0  0  0  0  0  0  0  0
   -1.1780    0.4810    1.3870 H   0  0  0  0  0  0  0  0  0  0  0  0
   -0.3680   -0.9850    1.9890 H   0  0  0  0  0  0  0  0  0  0  0  0
   -2.6300   -1.4000    2.5340 H   0  0  0  0  0  0  0  0  0  0  0  0
   -3.2280   -0.6600    1.0300 H   0  0  0  0  0  0  0  0  0  0  0  0
   -1.8630   -4.4920   -8.4090 H   0  0  0  0  0  0  0  0  0  0  0  0
   -2.6510   -0.5350   -6.9700 H   0  0  0  0  0  0  0  0  0  0  0  0
    3.0350    1.8920    2.3570 H   0  0  0  0  0  0  0  0  0  0  0  0
    0.8100    4.4690   -0.2510 H   0  0  0  0  0  0  0  0  0  0  0  0
    3.2520    4.1670    2.5890 H   0  0  0  0  0  0  0  0  0  0  0  0
    1.7790    5.1010    2.2350 H   0  0  0  0  0  0  0  0  0  0  0  0
    3.1270    5.0900    1.0720 H   0  0  0  0  0  0  0  0  0  0  0  0
  1  2  1  0  0  0  0
  1  3  1  0  0  0  0
  1 19  1  0  0  0  0
  2  6  1  0  0  0  0
  2  7  1  0  0  0  0
  2  8  1  0  0  0  0
  3  9  1  0  0  0  0
  3 13  2  0  0  0  0
  4  5  1  0  0  0  0
  4 10  1  0  0  0  0
  4 14  2  0  0  0  0
  5 11  1  0  0  0  0
  5 12  1  0  0  0  0
  6 12  1  0  0  0  0
  6 29  1  0  0  0  0
  6 30  1  0  0  0  0
  7 11  1  0  0  0  0
  7 31  1  0  0  0  0
  7 32  1  0  0  0  0
  8 21  1  0  0  0  0
  9 15  2  0  0  0  0
  9 16  1  0  0  0  0
 10 17  2  0  0  0  0
 10 18  1  0  0  0  0
 11 33  1  0  0  0  0
 11 34  1  0  0  0  0
 12 35  1  0  0  0  0
 12 36  1  0  0  0  0
 15 24  1  0  0  0  0
 15 37  1  0  0  0  0
 16 25  2  0  0  0  0
 16 38  1  0  0  0  0
 17 22  1  0  0  0  0
 17 39  1  0  0  0  0
 18 23  2  0  0  0  0
 18 40  1  0  0  0  0
 19 21  1  0  0  0  0
 19 41  1  0  0  0  0
 19 42  1  0  0  0  0
 20 22  2  0  0  0  0
 20 23  1  0  0  0  0
 20 27  1  0  0  0  0
 21 43  1  0  0  0  0
 21 44  1  0  0  0  0
 22 45  1  0  0  0  0
 23 46  1  0  0  0  0
 24 26  2  0  0  0  0
 24 47  1  0  0  0  0
 25 26  1  0  0  0  0
 25 48  1  0  0  0  0
 26 28  1  0  0  0  0
 28 49  1  0  0  0  0
 28 50  1  0  0  0  0
 28 51  1  0  0  0  0
M  END
>  <$CLUSTER>
381

>  <INDEX>
247608

$$$$
Tripos 1525-22010
  MOE2020           3D

 53 57  0  0  1  0  0  0  0  0999 V2000
    2.8360   -4.7390    1.4120 S   0  0  0  0  0  0  0  0  0  0  0  0
    2.1620   -3.4110    0.6390 N   0  0  0  0  0  0  0  0  0  0  0  0
   -1.1560    0.5470    0.3550 C   0  0  3  0  0  0  0  0  0  0  0  0
    0.3620    0.4160    0.2310 C   0  0  0  0  0  0  0  0  0  0  0  0
   -1.4630    1.7960    0.9650 O   0  0  0  0  0  0  0  0  0  0  0  0
    3.0530   -5.2910   -0.4490 C   0  0  0  0  0  0  0  0  0  0  0  0
    0.8860   -0.8520   -0.0330 N   0  0  0  0  0  0  0  0  0  0  0  0
   -3.2440    0.5660   -0.8980 O   0  0  0  0  0  0  0  0  0  0  0  0
   -2.7720    2.1390    0.8920 C   0  0  0  0  0  0  0  0  0  0  0  0
    4.1680   -4.5750    1.8410 O   0  0  0  0  0  0  0  0  0  0  0  0
    1.9130   -5.6830    1.9060 O   0  0  0  0  0  0  0  0  0  0  0  0
    2.8770   -2.1120    0.7300 C   0  0  0  0  0  0  0  0  0  0  0  0
    0.7010   -3.1800    0.7930 C   0  0  0  0  0  0  0  0  0  0  0  0
    2.1550   -6.2560   -1.0130 C   0  0  0  0  0  0  0  0  0  0  0  0
   -1.8190    0.5380   -1.0140 C   0  0  0  0  0  0  0  0  0  0  0  0
   -3.6440    1.5320   -0.0140 C   0  0  0  0  0  0  0  0  0  0  0  0
    2.3250   -1.0040   -0.2130 C   0  0  0  0  0  0  0  0  0  0  0  0
    0.1180   -2.0890   -0.1500 C   0  0  0  0  0  0  0  0  0  0  0  0
    2.3920   -6.8110   -2.2720 C   0  0  0  0  0  0  0  0  0  0  0  0
    1.0690    1.4200    0.3700 O   0  0  0  0  0  0  0  0  0  0  0  0
    4.3550   -5.2310   -1.0580 C   0  0  0  0  0  0  0  0  0  0  0  0
    3.6040   -6.5770   -2.9210 C   0  0  0  0  0  0  0  0  0  0  0  0
    4.5850   -5.7890   -2.3170 C   0  0  0  0  0  0  0  0  0  0  0  0
   -3.2350    3.1430    1.7430 C   0  0  0  0  0  0  0  0  0  0  0  0
    1.4180   -7.6350   -2.8740 C   0  0  0  0  0  0  0  0  0  0  0  0
   -4.9900    1.8980   -0.0400 C   0  0  0  0  0  0  0  0  0  0  0  0
    3.8680   -7.2200   -4.1490 C   0  0  0  0  0  0  0  0  0  0  0  0
   -4.5790    3.5160    1.7080 C   0  0  0  0  0  0  0  0  0  0  0  0
    1.6780   -8.2400   -4.1030 C   0  0  0  0  0  0  0  0  0  0  0  0
   -5.4570    2.8920    0.8220 C   0  0  0  0  0  0  0  0  0  0  0  0
    2.9000   -8.0330   -4.7390 C   0  0  0  0  0  0  0  0  0  0  0  0
   -1.5210   -0.2930    0.9460 H   0  0  0  0  0  0  0  0  0  0  0  0
    3.9240   -2.2820    0.4800 H   0  0  0  0  0  0  0  0  0  0  0  0
    2.8020   -1.7540    1.7570 H   0  0  0  0  0  0  0  0  0  0  0  0
    0.5110   -2.8770    1.8230 H   0  0  0  0  0  0  0  0  0  0  0  0
    0.1850   -4.1180    0.5890 H   0  0  0  0  0  0  0  0  0  0  0  0
    1.2810   -6.5580   -0.4550 H   0  0  0  0  0  0  0  0  0  0  0  0
   -1.5230   -0.3660   -1.5460 H   0  0  0  0  0  0  0  0  0  0  0  0
   -1.4900    1.4140   -1.5740 H   0  0  0  0  0  0  0  0  0  0  0  0
    2.8170   -0.0590    0.0170 H   0  0  0  0  0  0  0  0  0  0  0  0
    2.5300   -1.2780   -1.2480 H   0  0  0  0  0  0  0  0  0  0  0  0
    0.1620   -2.4430   -1.1800 H   0  0  0  0  0  0  0  0  0  0  0  0
   -0.9190   -1.8950    0.1230 H   0  0  0  0  0  0  0  0  0  0  0  0
    5.1660   -4.7470   -0.5340 H   0  0  0  0  0  0  0  0  0  0  0  0
    5.5220   -5.6110   -2.8240 H   0  0  0  0  0  0  0  0  0  0  0  0
   -2.5550    3.6300    2.4270 H   0  0  0  0  0  0  0  0  0  0  0  0
    0.4700   -7.7970   -2.3820 H   0  0  0  0  0  0  0  0  0  0  0  0
   -5.6690    1.4130   -0.7260 H   0  0  0  0  0  0  0  0  0  0  0  0
    4.8230   -7.0820   -4.6340 H   0  0  0  0  0  0  0  0  0  0  0  0
   -4.9400    4.2900    2.3690 H   0  0  0  0  0  0  0  0  0  0  0  0
    0.9310   -8.8700   -4.5630 H   0  0  0  0  0  0  0  0  0  0  0  0
   -6.4980    3.1780    0.8030 H   0  0  0  0  0  0  0  0  0  0  0  0
    3.0980   -8.5030   -5.6910 H   0  0  0  0  0  0  0  0  0  0  0  0
  1  2  1  0  0  0  0
  1  6  1  0  0  0  0
  1 10  2  0  0  0  0
  1 11  2  0  0  0  0
  2 12  1  0  0  0  0
  2 13  1  0  0  0  0
  3  4  1  0  0  0  0
  3  5  1  0  0  0  0
  3 15  1  0  0  0  0
  3 32  1  0  0  0  0
  4  7  1  0  0  0  0
  4 20  2  0  0  0  0
  5  9  1  0  0  0  0
  6 14  2  0  0  0  0
  6 21  1  0  0  0  0
  7 17  1  0  0  0  0
  7 18  1  0  0  0  0
  8 15  1  0  0  0  0
  8 16  1  0  0  0  0
  9 16  2  0  0  0  0
  9 24  1  0  0  0  0
 12 17  1  0  0  0  0
 12 33  1  0  0  0  0
 12 34  1  0  0  0  0
 13 18  1  0  0  0  0
 13 35  1  0  0  0  0
 13 36  1  0  0  0  0
 14 19  1  0  0  0  0
 14 37  1  0  0  0  0
 15 38  1  0  0  0  0
 15 39  1  0  0  0  0
 16 26  1  0  0  0  0
 17 40  1  0  0  0  0
 17 41  1  0  0  0  0
 18 42  1  0  0  0  0
 18 43  1  0  0  0  0
 19 22  2  0  0  0  0
 19 25  1  0  0  0  0
 21 23  2  0  0  0  0
 21 44  1  0  0  0  0
 22 23  1  0  0  0  0
 22 27  1  0  0  0  0
 23 45  1  0  0  0  0
 24 28  2  0  0  0  0
 24 46  1  0  0  0  0
 25 29  2  0  0  0  0
 25 47  1  0  0  0  0
 26 30  2  0  0  0  0
 26 48  1  0  0  0  0
 27 31  2  0  0  0  0
 27 49  1  0  0  0  0
 28 30  1  0  0  0  0
 28 50  1  0  0  0  0
 29 31  1  0  0  0  0
 29 51  1  0  0  0  0
 30 52  1  0  0  0  0
 31 53  1  0  0  0  0
M  END
>  <$CLUSTER>
382

>  <INDEX>
447414

$$$$
Comgenex CGX-2175578
  MOE2020           3D

 46 46  0  0  0  0  0  0  0  0999 V2000
    2.0260   -0.9590   -1.6940 N   0  3  0  0  0  0  0  0  0  0  0  0
    1.5880   -0.0030   -0.7770 C   0  0  0  0  0  0  0  0  0  0  0  0
    3.1800   -1.0600   -2.3300 C   0  0  0  0  0  0  0  0  0  0  0  0
    0.2500   -0.0100   -0.1300 C   0  0  0  0  0  0  0  0  0  0  0  0
    2.4030    0.8800   -0.5230 O   0  0  0  0  0  0  0  0  0  0  0  0
    4.1560   -0.1960   -2.1710 N   0  0  0  0  0  0  0  0  0  0  0  0
   -0.0680    1.0100    0.7780 C   0  0  0  0  0  0  0  0  0  0  0  0
   -0.6930   -1.0080   -0.4050 C   0  0  0  0  0  0  0  0  0  0  0  0
    3.3200   -2.0680   -3.1400 O   0  0  0  0  0  0  0  0  0  0  0  0
   -1.3160    1.0320    1.4020 C   0  0  0  0  0  0  0  0  0  0  0  0
   -1.9400   -0.9800    0.2240 C   0  0  0  0  0  0  0  0  0  0  0  0
   -2.2500    0.0370    1.1250 C   0  0  0  0  0  0  0  0  0  0  0  0
    1.7710   -5.0200   -4.5590 O   0  0  0  0  0  0  0  0  0  0  0  0
    4.2000    0.9750   -1.3190 C   0  0  0  0  0  0  0  0  0  0  0  0
    2.3250   -3.0140   -3.3520 C   0  0  0  0  0  0  0  0  0  0  0  0
    2.7900   -4.0600   -4.3490 C   0  0  0  0  0  0  0  0  0  0  0  0
   -3.5860    0.0620    1.7950 C   0  0  0  0  0  0  0  0  0  0  0  0
    2.1500   -6.0200   -5.4800 C   0  0  0  0  0  0  0  0  0  0  0  0
    3.6020    2.1520   -2.0610 C   0  0  0  0  0  0  0  0  0  0  0  0
    3.6370    3.4260   -1.1980 C   0  0  0  0  0  0  0  0  0  0  0  0
    3.0370    4.6120   -1.9380 C   0  0  0  0  0  0  0  0  0  0  0  0
    1.3580   -1.6860   -1.9040 H   0  0  0  0  0  0  0  0  0  0  0  0
    4.9880   -0.3710   -2.7160 H   0  0  0  0  0  0  0  0  0  0  0  0
    0.6560    1.7820    0.9950 H   0  0  0  0  0  0  0  0  0  0  0  0
   -0.4570   -1.7980   -1.1020 H   0  0  0  0  0  0  0  0  0  0  0  0
   -1.5570    1.8200    2.1000 H   0  0  0  0  0  0  0  0  0  0  0  0
   -2.6670   -1.7500    0.0110 H   0  0  0  0  0  0  0  0  0  0  0  0
    5.2340    1.1970   -1.0570 H   0  0  0  0  0  0  0  0  0  0  0  0
    3.6270    0.7870   -0.4110 H   0  0  0  0  0  0  0  0  0  0  0  0
    1.4360   -2.5180   -3.7410 H   0  0  0  0  0  0  0  0  0  0  0  0
    2.0860   -3.5010   -2.4070 H   0  0  0  0  0  0  0  0  0  0  0  0
    3.0290   -3.5750   -5.2950 H   0  0  0  0  0  0  0  0  0  0  0  0
    3.6790   -4.5570   -3.9610 H   0  0  0  0  0  0  0  0  0  0  0  0
   -3.6430    0.9250    2.4590 H   0  0  0  0  0  0  0  0  0  0  0  0
   -3.7190   -0.8520    2.3740 H   0  0  0  0  0  0  0  0  0  0  0  0
   -4.3700    0.1310    1.0410 H   0  0  0  0  0  0  0  0  0  0  0  0
    1.3320   -6.7290   -5.6030 H   0  0  0  0  0  0  0  0  0  0  0  0
    3.0310   -6.5430   -5.1070 H   0  0  0  0  0  0  0  0  0  0  0  0
    2.3800   -5.5600   -6.4410 H   0  0  0  0  0  0  0  0  0  0  0  0
    2.5670    1.9230   -2.3170 H   0  0  0  0  0  0  0  0  0  0  0  0
    4.1720    2.3240   -2.9740 H   0  0  0  0  0  0  0  0  0  0  0  0
    4.6720    3.6540   -0.9430 H   0  0  0  0  0  0  0  0  0  0  0  0
    3.0670    3.2520   -0.2850 H   0  0  0  0  0  0  0  0  0  0  0  0
    3.6010    4.7930   -2.8530 H   0  0  0  0  0  0  0  0  0  0  0  0
    3.0810    5.4970   -1.3030 H   0  0  0  0  0  0  0  0  0  0  0  0
    1.9980    4.3960   -2.1880 H   0  0  0  0  0  0  0  0  0  0  0  0
  1  2  1  0  0  0  0
  1  3  2  0  0  0  0
  1 22  1  0  0  0  0
  2  4  1  0  0  0  0
  2  5  2  0  0  0  0
  3  6  1  0  0  0  0
  3  9  1  0  0  0  0
  4  7  2  0  0  0  0
  4  8  1  0  0  0  0
  6 14  1  0  0  0  0
  6 23  1  0  0  0  0
  7 10  1  0  0  0  0
  7 24  1  0  0  0  0
  8 11  2  0  0  0  0
  8 25  1  0  0  0  0
  9 15  1  0  0  0  0
 10 12  2  0  0  0  0
 10 26  1  0  0  0  0
 11 12  1  0  0  0  0
 11 27  1  0  0  0  0
 12 17  1  0  0  0  0
 13 16  1  0  0  0  0
 13 18  1  0  0  0  0
 14 19  1  0  0  0  0
 14 28  1  0  0  0  0
 14 29  1  0  0  0  0
 15 16  1  0  0  0  0
 15 30  1  0  0  0  0
 15 31  1  0  0  0  0
 16 32  1  0  0  0  0
 16 33  1  0  0  0  0
 17 34  1  0  0  0  0
 17 35  1  0  0  0  0
 17 36  1  0  0  0  0
 18 37  1  0  0  0  0
 18 38  1  0  0  0  0
 18 39  1  0  0  0  0
 19 20  1  0  0  0  0
 19 40  1  0  0  0  0
 19 41  1  0  0  0  0
 20 21  1  0  0  0  0
 20 42  1  0  0  0  0
 20 43  1  0  0  0  0
 21 44  1  0  0  0  0
 21 45  1  0  0  0  0
 21 46  1  0  0  0  0
M  CHG  1   1   1
M  END
>  <$CLUSTER>
383

>  <INDEX>
250801

$$$$
Comgenex CGX-2205814
  MOE2020           3D

 52 55  0  0  0  0  0  0  0  0999 V2000
   -0.9620    3.5490   -0.4540 C   0  0  0  0  0  0  0  0  0  0  0  0
   -2.1580    5.3710   -0.0850 N   0  0  0  0  0  0  0  0  0  0  0  0
   -0.9460    4.9110   -0.5440 C   0  0  0  0  0  0  0  0  0  0  0  0
   -2.9430    4.3200    0.2980 C   0  0  0  0  0  0  0  0  0  0  0  0
   -2.2290    3.1650    0.0810 C   0  0  0  0  0  0  0  0  0  0  0  0
    0.1600    2.6210   -0.8480 C   0  0  0  0  0  0  0  0  0  0  0  0
   -0.0580    1.3040   -0.6770 N   0  0  0  0  0  0  0  0  0  0  0  0
   -2.6200    6.7660   -0.0020 C   0  0  0  0  0  0  0  0  0  0  0  0
   -4.2840    4.3150    0.9480 C   0  0  0  0  0  0  0  0  0  0  0  0
    1.2050    3.0980   -1.3000 O   0  0  0  0  0  0  0  0  0  0  0  0
    0.0500   -1.2900    0.6520 O   0  0  0  0  0  0  0  0  0  0  0  0
   -3.9070    7.1200   -0.4270 C   0  0  0  0  0  0  0  0  0  0  0  0
   -1.7560    7.7530    0.4870 C   0  0  0  0  0  0  0  0  0  0  0  0
   -5.3640    3.6370    0.3670 C   0  0  0  0  0  0  0  0  0  0  0  0
   -4.4750    4.9830    2.1670 C   0  0  0  0  0  0  0  0  0  0  0  0
    0.0920    5.8630   -1.0200 C   0  0  0  0  0  0  0  0  0  0  0  0
   -6.8010    4.3250    2.1850 C   0  0  0  0  0  0  0  0  0  0  0  0
   -3.4600    9.4320    0.1240 C   0  0  0  0  0  0  0  0  0  0  0  0
   -6.6180    3.6470    0.9810 C   0  0  0  0  0  0  0  0  0  0  0  0
   -5.7300    4.9910    2.7780 C   0  0  0  0  0  0  0  0  0  0  0  0
   -2.1800    9.0820    0.5490 C   0  0  0  0  0  0  0  0  0  0  0  0
   -4.3220    8.4520   -0.3640 C   0  0  0  0  0  0  0  0  0  0  0  0
   -8.3370    4.3320    2.9190 Cl  0  0  0  0  0  0  0  0  0  0  0  0
   -1.2610    0.6380   -0.1500 C   0  0  0  0  0  0  0  0  0  0  0  0
    0.9480    0.2850   -1.0190 C   0  0  0  0  0  0  0  0  0  0  0  0
   -3.9870   10.7040    0.1370 O   0  0  0  0  0  0  0  0  0  0  0  0
    1.2470   -0.6420    0.1700 C   0  0  0  0  0  0  0  0  0  0  0  0
   -0.9270   -0.2950    1.0250 C   0  0  0  0  0  0  0  0  0  0  0  0
   -3.1470   11.7440    0.6260 C   0  0  0  0  0  0  0  0  0  0  0  0
   -2.5640    2.1570    0.2780 H   0  0  0  0  0  0  0  0  0  0  0  0
   -4.5790    6.3630   -0.8040 H   0  0  0  0  0  0  0  0  0  0  0  0
   -0.7620    7.4870    0.8160 H   0  0  0  0  0  0  0  0  0  0  0  0
   -5.2260    3.1030   -0.5620 H   0  0  0  0  0  0  0  0  0  0  0  0
   -3.6470    5.4940    2.6350 H   0  0  0  0  0  0  0  0  0  0  0  0
    0.9740    5.3080   -1.3400 H   0  0  0  0  0  0  0  0  0  0  0  0
    0.3630    6.5400   -0.2100 H   0  0  0  0  0  0  0  0  0  0  0  0
   -0.3000    6.4380   -1.8590 H   0  0  0  0  0  0  0  0  0  0  0  0
   -7.4470    3.1290    0.5220 H   0  0  0  0  0  0  0  0  0  0  0  0
   -5.8710    5.5140    3.7120 H   0  0  0  0  0  0  0  0  0  0  0  0
   -1.5130    9.8420    0.9280 H   0  0  0  0  0  0  0  0  0  0  0  0
   -5.3140    8.7230   -0.6940 H   0  0  0  0  0  0  0  0  0  0  0  0
   -1.7180    0.0520   -0.9470 H   0  0  0  0  0  0  0  0  0  0  0  0
   -1.9640    1.3980    0.1910 H   0  0  0  0  0  0  0  0  0  0  0  0
    1.8700    0.7850   -1.3170 H   0  0  0  0  0  0  0  0  0  0  0  0
    0.5750   -0.3150   -1.8490 H   0  0  0  0  0  0  0  0  0  0  0  0
    1.9590   -1.4040   -0.1460 H   0  0  0  0  0  0  0  0  0  0  0  0
    1.6800   -0.0530    0.9780 H   0  0  0  0  0  0  0  0  0  0  0  0
   -0.5300    0.3000    1.8470 H   0  0  0  0  0  0  0  0  0  0  0  0
   -1.8390   -0.7980    1.3480 H   0  0  0  0  0  0  0  0  0  0  0  0
   -3.6810   12.6930    0.5830 H   0  0  0  0  0  0  0  0  0  0  0  0
   -2.2490   11.8040    0.0120 H   0  0  0  0  0  0  0  0  0  0  0  0
   -2.8680   11.5310    1.6580 H   0  0  0  0  0  0  0  0  0  0  0  0
  1  3  2  0  0  0  0
  1  5  1  0  0  0  0
  1  6  1  0  0  0  0
  2  3  1  0  0  0  0
  2  4  1  0  0  0  0
  2  8  1  0  0  0  0
  3 16  1  0  0  0  0
  4  5  2  0  0  0  0
  4  9  1  0  0  0  0
  5 30  1  0  0  0  0
  6  7  1  0  0  0  0
  6 10  2  0  0  0  0
  7 24  1  0  0  0  0
  7 25  1  0  0  0  0
  8 12  1  0  0  0  0
  8 13  2  0  0  0  0
  9 14  2  0  0  0  0
  9 15  1  0  0  0  0
 11 27  1  0  0  0  0
 11 28  1  0  0  0  0
 12 22  2  0  0  0  0
 12 31  1  0  0  0  0
 13 21  1  0  0  0  0
 13 32  1  0  0  0  0
 14 19  1  0  0  0  0
 14 33  1  0  0  0  0
 15 20  2  0  0  0  0
 15 34  1  0  0  0  0
 16 35  1  0  0  0  0
 16 36  1  0  0  0  0
 16 37  1  0  0  0  0
 17 19  2  0  0  0  0
 17 20  1  0  0  0  0
 17 23  1  0  0  0  0
 18 21  2  0  0  0  0
 18 22  1  0  0  0  0
 18 26  1  0  0  0  0
 19 38  1  0  0  0  0
 20 39  1  0  0  0  0
 21 40  1  0  0  0  0
 22 41  1  0  0  0  0
 24 28  1  0  0  0  0
 24 42  1  0  0  0  0
 24 43  1  0  0  0  0
 25 27  1  0  0  0  0
 25 44  1  0  0  0  0
 25 45  1  0  0  0  0
 26 29  1  0  0  0  0
 27 46  1  0  0  0  0
 27 47  1  0  0  0  0
 28 48  1  0  0  0  0
 28 49  1  0  0  0  0
 29 50  1  0  0  0  0
 29 51  1  0  0  0  0
 29 52  1  0  0  0  0
M  END
>  <$CLUSTER>
384

>  <INDEX>
252233

$$$$
Comgenex CGX-2214971
  MOE2020           3D

 56 60  0  0  0  0  0  0  0  0999 V2000
    1.0990    0.2380   -0.3440 C   0  0  0  0  0  0  0  0  0  0  0  0
    1.1420    0.6470   -1.6430 N   0  0  0  0  0  0  0  0  0  0  0  0
   -0.1430   -0.0660    0.2410 C   0  0  0  0  0  0  0  0  0  0  0  0
   -1.6260   -1.2320    1.8980 N   0  0  0  0  0  0  0  0  0  0  0  0
   -0.0170    0.8070   -2.3030 C   0  0  0  0  0  0  0  0  0  0  0  0
   -1.2430    0.5940   -1.8200 N   0  0  0  0  0  0  0  0  0  0  0  0
   -1.2860    0.1580   -0.5450 C   0  0  0  0  0  0  0  0  0  0  0  0
   -0.3160   -0.6190    1.6370 C   0  0  0  0  0  0  0  0  0  0  0  0
   -1.8750   -2.4550    2.4320 C   0  0  0  0  0  0  0  0  0  0  0  0
    2.3190    0.1550    0.3170 N   0  0  0  0  0  0  0  0  0  0  0  0
   -2.6620   -0.1590   -0.0200 C   0  0  0  0  0  0  0  0  0  0  0  0
   -2.6980   -0.3280    1.4940 C   0  0  0  0  0  0  0  0  0  0  0  0
   -0.6760   -3.2900    2.8060 C   0  0  0  0  0  0  0  0  0  0  0  0
   -3.0070   -2.9070    2.6230 O   0  0  0  0  0  0  0  0  0  0  0  0
    0.0240    1.2860   -3.7570 C   0  0  0  0  0  0  0  0  0  0  0  0
   -0.8320   -4.6760    2.8390 C   0  0  0  0  0  0  0  0  0  0  0  0
    0.5420   -2.7050    3.1240 C   0  0  0  0  0  0  0  0  0  0  0  0
    1.4830   -4.9040    3.4940 C   0  0  0  0  0  0  0  0  0  0  0  0
    1.6260   -3.5170    3.4670 C   0  0  0  0  0  0  0  0  0  0  0  0
    0.2550   -5.4830    3.1820 C   0  0  0  0  0  0  0  0  0  0  0  0
    2.5690   -5.6020    3.8270 F   0  0  0  0  0  0  0  0  0  0  0  0
    3.4990   -0.1620   -0.4780 C   0  0  0  0  0  0  0  0  0  0  0  0
    2.5060    0.4380    1.7280 C   0  0  0  0  0  0  0  0  0  0  0  0
    1.2130    1.2370   -4.4920 C   0  0  0  0  0  0  0  0  0  0  0  0
   -1.1390    1.7760   -4.3650 C   0  0  0  0  0  0  0  0  0  0  0  0
    4.2230   -1.3630    0.1650 C   0  0  0  0  0  0  0  0  0  0  0  0
    3.2250   -0.7600    2.3860 C   0  0  0  0  0  0  0  0  0  0  0  0
    1.2390    1.6820   -5.8180 C   0  0  0  0  0  0  0  0  0  0  0  0
   -1.1110    2.2200   -5.6900 C   0  0  0  0  0  0  0  0  0  0  0  0
    4.4990   -1.1620    1.6520 C   0  0  0  0  0  0  0  0  0  0  0  0
    0.0790    2.1750   -6.4160 C   0  0  0  0  0  0  0  0  0  0  0  0
   -0.1760    0.1980    2.3450 H   0  0  0  0  0  0  0  0  0  0  0  0
    0.4510   -1.3760    1.8000 H   0  0  0  0  0  0  0  0  0  0  0  0
   -3.0050   -1.0850   -0.4810 H   0  0  0  0  0  0  0  0  0  0  0  0
   -3.3340    0.6540   -0.2950 H   0  0  0  0  0  0  0  0  0  0  0  0
   -2.5590    0.6410    1.9730 H   0  0  0  0  0  0  0  0  0  0  0  0
   -3.6600   -0.7460    1.7920 H   0  0  0  0  0  0  0  0  0  0  0  0
   -1.7870   -5.1220    2.6010 H   0  0  0  0  0  0  0  0  0  0  0  0
    0.6510   -1.6310    3.1060 H   0  0  0  0  0  0  0  0  0  0  0  0
    2.5780   -3.0690    3.7120 H   0  0  0  0  0  0  0  0  0  0  0  0
    0.1430   -6.5570    3.2050 H   0  0  0  0  0  0  0  0  0  0  0  0
    4.1670    0.6990   -0.5020 H   0  0  0  0  0  0  0  0  0  0  0  0
    3.1990   -0.4170   -1.4940 H   0  0  0  0  0  0  0  0  0  0  0  0
    1.5370    0.5890    2.2030 H   0  0  0  0  0  0  0  0  0  0  0  0
    3.1110    1.3370    1.8440 H   0  0  0  0  0  0  0  0  0  0  0  0
    2.1130    0.8550   -4.0350 H   0  0  0  0  0  0  0  0  0  0  0  0
   -2.0630    1.8110   -3.8070 H   0  0  0  0  0  0  0  0  0  0  0  0
    5.1730   -1.5120   -0.3480 H   0  0  0  0  0  0  0  0  0  0  0  0
    3.6010   -2.2500    0.0430 H   0  0  0  0  0  0  0  0  0  0  0  0
    2.5450   -1.6120    2.3950 H   0  0  0  0  0  0  0  0  0  0  0  0
    3.4840   -0.4910    3.4100 H   0  0  0  0  0  0  0  0  0  0  0  0
    2.1600    1.6440   -6.3810 H   0  0  0  0  0  0  0  0  0  0  0  0
   -2.0110    2.5980   -6.1520 H   0  0  0  0  0  0  0  0  0  0  0  0
    5.2460   -0.3770    1.7750 H   0  0  0  0  0  0  0  0  0  0  0  0
    4.8770   -2.0930    2.0750 H   0  0  0  0  0  0  0  0  0  0  0  0
    0.1020    2.5210   -7.4390 H   0  0  0  0  0  0  0  0  0  0  0  0
  1  2  2  0  0  0  0
  1  3  1  0  0  0  0
  1 10  1  0  0  0  0
  2  5  1  0  0  0  0
  3  7  2  0  0  0  0
  3  8  1  0  0  0  0
  4  8  1  0  0  0  0
  4  9  1  0  0  0  0
  4 12  1  0  0  0  0
  5  6  2  0  0  0  0
  5 15  1  0  0  0  0
  6  7  1  0  0  0  0
  7 11  1  0  0  0  0
  8 32  1  0  0  0  0
  8 33  1  0  0  0  0
  9 13  1  0  0  0  0
  9 14  2  0  0  0  0
 10 22  1  0  0  0  0
 10 23  1  0  0  0  0
 11 12  1  0  0  0  0
 11 34  1  0  0  0  0
 11 35  1  0  0  0  0
 12 36  1  0  0  0  0
 12 37  1  0  0  0  0
 13 16  1  0  0  0  0
 13 17  2  0  0  0  0
 15 24  2  0  0  0  0
 15 25  1  0  0  0  0
 16 20  2  0  0  0  0
 16 38  1  0  0  0  0
 17 19  1  0  0  0  0
 17 39  1  0  0  0  0
 18 19  2  0  0  0  0
 18 20  1  0  0  0  0
 18 21  1  0  0  0  0
 19 40  1  0  0  0  0
 20 41  1  0  0  0  0
 22 26  1  0  0  0  0
 22 42  1  0  0  0  0
 22 43  1  0  0  0  0
 23 27  1  0  0  0  0
 23 44  1  0  0  0  0
 23 45  1  0  0  0  0
 24 28  1  0  0  0  0
 24 46  1  0  0  0  0
 25 29  2  0  0  0  0
 25 47  1  0  0  0  0
 26 30  1  0  0  0  0
 26 48  1  0  0  0  0
 26 49  1  0  0  0  0
 27 30  1  0  0  0  0
 27 50  1  0  0  0  0
 27 51  1  0  0  0  0
 28 31  2  0  0  0  0
 28 52  1  0  0  0  0
 29 31  1  0  0  0  0
 29 53  1  0  0  0  0
 30 54  1  0  0  0  0
 30 55  1  0  0  0  0
 31 56  1  0  0  0  0
M  END
>  <$CLUSTER>
385

>  <INDEX>
253649

$$$$
Comgenex CGX-0740668
  MOE2020           3D

 54 57  0  0  0  0  0  0  0  0999 V2000
   -1.0420    3.0060    1.3930 C   0  0  0  0  0  0  0  0  0  0  0  0
   -1.6140    1.7590    0.7660 C   0  0  0  0  0  0  0  0  0  0  0  0
   -0.2970    3.9330    0.6640 C   0  0  0  0  0  0  0  0  0  0  0  0
   -1.4300    3.4530    5.7910 C   0  0  0  0  0  0  0  0  0  0  0  0
   -0.7530    0.9410    0.1890 N   0  0  0  0  0  0  0  0  0  0  0  0
   -0.1620    3.9440   -0.7190 N   0  0  0  0  0  0  0  0  0  0  0  0
   -1.2240    3.0700    2.7770 C   0  0  0  0  0  0  0  0  0  0  0  0
   -0.7250    4.2500    4.8950 N   0  0  0  0  0  0  0  0  0  0  0  0
   -1.3010    3.9240    7.0890 N   0  0  0  0  0  0  0  0  0  0  0  0
    0.3170    4.9450    1.4340 C   0  0  0  0  0  0  0  0  0  0  0  0
   -2.8310    1.5620    0.8180 O   0  0  0  0  0  0  0  0  0  0  0  0
   -0.6210    4.0980    3.4920 C   0  0  0  0  0  0  0  0  0  0  0  0
   -2.0960    2.4530    5.5360 O   0  0  0  0  0  0  0  0  0  0  0  0
   -1.8300    3.4490    8.3110 C   0  0  0  0  0  0  0  0  0  0  0  0
   -2.6440    2.3140    8.3910 C   0  0  0  0  0  0  0  0  0  0  0  0
    0.1590    5.0300    2.8220 C   0  0  0  0  0  0  0  0  0  0  0  0
   -3.1400    1.8880    9.6270 C   0  0  0  0  0  0  0  0  0  0  0  0
   -3.9230    0.8150    9.7760 F   0  0  0  0  0  0  0  0  0  0  0  0
    0.6970    1.0310    0.0460 C   0  0  0  0  0  0  0  0  0  0  0  0
   -1.1110   -0.3120   -0.4700 C   0  0  0  0  0  0  0  0  0  0  0  0
    1.1010    4.3350   -1.3280 C   0  0  0  0  0  0  0  0  0  0  0  0
   -1.2720    3.6180   -1.6020 C   0  0  0  0  0  0  0  0  0  0  0  0
   -2.0200    3.7170   10.7230 C   0  0  0  0  0  0  0  0  0  0  0  0
   -1.5230    4.1450    9.4910 C   0  0  0  0  0  0  0  0  0  0  0  0
   -2.8300    2.5870   10.7910 C   0  0  0  0  0  0  0  0  0  0  0  0
   -0.0120   -1.2720   -0.0520 C   0  0  0  0  0  0  0  0  0  0  0  0
   -0.4130    2.8930   -2.7110 C   0  0  0  0  0  0  0  0  0  0  0  0
    1.0330    3.3310   -2.5440 C   0  0  0  0  0  0  0  0  0  0  0  0
    1.1780   -0.3880    0.2870 C   0  0  0  0  0  0  0  0  0  0  0  0
   -1.8250    2.3300    3.2840 H   0  0  0  0  0  0  0  0  0  0  0  0
   -0.2270    5.0320    5.2940 H   0  0  0  0  0  0  0  0  0  0  0  0
   -0.7290    4.7520    7.1770 H   0  0  0  0  0  0  0  0  0  0  0  0
    0.9310    5.6800    0.9340 H   0  0  0  0  0  0  0  0  0  0  0  0
   -2.8900    1.7650    7.4940 H   0  0  0  0  0  0  0  0  0  0  0  0
    0.6450    5.8220    3.3720 H   0  0  0  0  0  0  0  0  0  0  0  0
    1.1180    1.7130    0.7850 H   0  0  0  0  0  0  0  0  0  0  0  0
    0.9680    1.3670   -0.9550 H   0  0  0  0  0  0  0  0  0  0  0  0
   -1.1280   -0.1900   -1.5530 H   0  0  0  0  0  0  0  0  0  0  0  0
   -2.0840   -0.6650   -0.1290 H   0  0  0  0  0  0  0  0  0  0  0  0
    1.9550    4.1480   -0.6780 H   0  0  0  0  0  0  0  0  0  0  0  0
    1.1080    5.3780   -1.6460 H   0  0  0  0  0  0  0  0  0  0  0  0
   -1.7810    4.5050   -1.9800 H   0  0  0  0  0  0  0  0  0  0  0  0
   -1.9980    2.9540   -1.1340 H   0  0  0  0  0  0  0  0  0  0  0  0
   -1.7760    4.2620   11.6230 H   0  0  0  0  0  0  0  0  0  0  0  0
   -0.8950    5.0220    9.4450 H   0  0  0  0  0  0  0  0  0  0  0  0
   -3.2170    2.2540   11.7430 H   0  0  0  0  0  0  0  0  0  0  0  0
    0.2350   -1.9500   -0.8690 H   0  0  0  0  0  0  0  0  0  0  0  0
   -0.3200   -1.8500    0.8190 H   0  0  0  0  0  0  0  0  0  0  0  0
   -0.7730    3.1740   -3.7010 H   0  0  0  0  0  0  0  0  0  0  0  0
   -0.4890    1.8120   -2.5900 H   0  0  0  0  0  0  0  0  0  0  0  0
    1.6610    2.4630   -2.3430 H   0  0  0  0  0  0  0  0  0  0  0  0
    1.3770    3.8260   -3.4520 H   0  0  0  0  0  0  0  0  0  0  0  0
    1.4700   -0.5220    1.3290 H   0  0  0  0  0  0  0  0  0  0  0  0
    2.0240   -0.6200   -0.3600 H   0  0  0  0  0  0  0  0  0  0  0  0
  1  2  1  0  0  0  0
  1  3  2  0  0  0  0
  1  7  1  0  0  0  0
  2  5  1  0  0  0  0
  2 11  2  0  0  0  0
  3  6  1  0  0  0  0
  3 10  1  0  0  0  0
  4  8  1  0  0  0  0
  4  9  1  0  0  0  0
  4 13  2  0  0  0  0
  5 19  1  0  0  0  0
  5 20  1  0  0  0  0
  6 21  1  0  0  0  0
  6 22  1  0  0  0  0
  7 12  2  0  0  0  0
  7 30  1  0  0  0  0
  8 12  1  0  0  0  0
  8 31  1  0  0  0  0
  9 14  1  0  0  0  0
  9 32  1  0  0  0  0
 10 16  2  0  0  0  0
 10 33  1  0  0  0  0
 12 16  1  0  0  0  0
 14 15  2  0  0  0  0
 14 24  1  0  0  0  0
 15 17  1  0  0  0  0
 15 34  1  0  0  0  0
 16 35  1  0  0  0  0
 17 18  1  0  0  0  0
 17 25  2  0  0  0  0
 19 29  1  0  0  0  0
 19 36  1  0  0  0  0
 19 37  1  0  0  0  0
 20 26  1  0  0  0  0
 20 38  1  0  0  0  0
 20 39  1  0  0  0  0
 21 28  1  0  0  0  0
 21 40  1  0  0  0  0
 21 41  1  0  0  0  0
 22 27  1  0  0  0  0
 22 42  1  0  0  0  0
 22 43  1  0  0  0  0
 23 24  2  0  0  0  0
 23 25  1  0  0  0  0
 23 44  1  0  0  0  0
 24 45  1  0  0  0  0
 25 46  1  0  0  0  0
 26 29  1  0  0  0  0
 26 47  1  0  0  0  0
 26 48  1  0  0  0  0
 27 28  1  0  0  0  0
 27 49  1  0  0  0  0
 27 50  1  0  0  0  0
 28 51  1  0  0  0  0
 28 52  1  0  0  0  0
 29 53  1  0  0  0  0
 29 54  1  0  0  0  0
M  END
>  <$CLUSTER>
386

>  <INDEX>
240716

$$$$
Comgenex CGX-0746446
  MOE2020           3D

 52 53  0  0  0  0  0  0  0  0999 V2000
   -6.7050    0.1550    0.4950 C   0  0  0  0  0  0  0  0  0  0  0  0
   -7.3950   -0.2410   -0.7390 C   0  0  0  0  0  0  0  0  0  0  0  0
   -7.3320    0.6750    1.6250 C   0  0  0  0  0  0  0  0  0  0  0  0
   -2.2230    0.1170    0.4870 C   0  0  0  0  0  0  0  0  0  0  0  0
   -5.3090    0.1090    0.4180 C   0  0  0  0  0  0  0  0  0  0  0  0
   -0.9060    0.2950    0.9000 N   0  0  0  0  0  0  0  0  0  0  0  0
   -3.1140    0.5630    1.4510 N   0  0  0  0  0  0  0  0  0  0  0  0
    1.5190   -0.9070   -1.6940 C   0  0  0  0  0  0  0  0  0  0  0  0
    0.2990   -0.6150   -1.0750 C   0  0  0  0  0  0  0  0  0  0  0  0
   -8.1290    0.7540   -1.3410 N   0  0  0  0  0  0  0  0  0  0  0  0
   -6.5640    1.1510    2.6830 C   0  0  0  0  0  0  0  0  0  0  0  0
   -8.7550    0.6630    1.7880 N   0  0  0  0  0  0  0  0  0  0  0  0
   -7.2590   -1.3790   -1.1740 O   0  0  0  0  0  0  0  0  0  0  0  0
    0.2750   -0.0350    0.1970 C   0  0  0  0  0  0  0  0  0  0  0  0
   -4.5280    0.5860    1.4760 C   0  0  0  0  0  0  0  0  0  0  0  0
    2.7220   -0.6230   -1.0520 C   0  0  0  0  0  0  0  0  0  0  0  0
   -2.6140   -0.3640   -0.5730 O   0  0  0  0  0  0  0  0  0  0  0  0
    2.7090   -0.0450    0.2140 C   0  0  0  0  0  0  0  0  0  0  0  0
   -5.1710    1.1070    2.6090 C   0  0  0  0  0  0  0  0  0  0  0  0
    1.4390   -1.4610   -2.9080 F   0  0  0  0  0  0  0  0  0  0  0  0
    1.4930    0.2470    0.8350 C   0  0  0  0  0  0  0  0  0  0  0  0
    3.9210   -0.8720   -1.5770 F   0  0  0  0  0  0  0  0  0  0  0  0
   -8.8400    0.4340   -2.6210 C   0  0  0  0  0  0  0  0  0  0  0  0
   -8.3300    2.1190   -0.8450 C   0  0  0  0  0  0  0  0  0  0  0  0
   -9.4140    1.7700    2.4650 C   0  0  0  0  0  0  0  0  0  0  0  0
   -9.5800   -0.4470    1.3350 C   0  0  0  0  0  0  0  0  0  0  0  0
   -7.3410    3.0950   -1.4630 C   0  0  0  0  0  0  0  0  0  0  0  0
  -10.2450   -0.0920   -2.3720 C   0  0  0  0  0  0  0  0  0  0  0  0
   -4.8320   -0.2970   -0.4620 H   0  0  0  0  0  0  0  0  0  0  0  0
   -0.7790    0.7100    1.8120 H   0  0  0  0  0  0  0  0  0  0  0  0
   -2.6770    0.9370    2.2810 H   0  0  0  0  0  0  0  0  0  0  0  0
   -0.6280   -0.8380   -1.5820 H   0  0  0  0  0  0  0  0  0  0  0  0
   -7.0460    1.5540    3.5610 H   0  0  0  0  0  0  0  0  0  0  0  0
    3.6390    0.1780    0.7160 H   0  0  0  0  0  0  0  0  0  0  0  0
   -4.5810    1.4780    3.4340 H   0  0  0  0  0  0  0  0  0  0  0  0
    1.4900    0.6950    1.8180 H   0  0  0  0  0  0  0  0  0  0  0  0
   -8.2710   -0.3230   -3.1610 H   0  0  0  0  0  0  0  0  0  0  0  0
   -8.9040    1.3390   -3.2240 H   0  0  0  0  0  0  0  0  0  0  0  0
   -8.2010    2.1240    0.2370 H   0  0  0  0  0  0  0  0  0  0  0  0
   -9.3420    2.4390   -1.0920 H   0  0  0  0  0  0  0  0  0  0  0  0
   -8.6730    2.5190    2.7430 H   0  0  0  0  0  0  0  0  0  0  0  0
   -9.9130    1.4020    3.3620 H   0  0  0  0  0  0  0  0  0  0  0  0
  -10.1500    2.2180    1.7970 H   0  0  0  0  0  0  0  0  0  0  0  0
   -8.9510   -1.1930    0.8500 H   0  0  0  0  0  0  0  0  0  0  0  0
  -10.3230   -0.0820    0.6250 H   0  0  0  0  0  0  0  0  0  0  0  0
  -10.0850   -0.8970    2.1900 H   0  0  0  0  0  0  0  0  0  0  0  0
   -6.3250    2.7840   -1.2220 H   0  0  0  0  0  0  0  0  0  0  0  0
   -7.5190    4.0940   -1.0650 H   0  0  0  0  0  0  0  0  0  0  0  0
   -7.4700    3.1070   -2.5450 H   0  0  0  0  0  0  0  0  0  0  0  0
  -10.1920   -0.9980   -1.7690 H   0  0  0  0  0  0  0  0  0  0  0  0
  -10.7230   -0.3180   -3.3250 H   0  0  0  0  0  0  0  0  0  0  0  0
  -10.8270    0.6630   -1.8430 H   0  0  0  0  0  0  0  0  0  0  0  0
  1  2  1  0  0  0  0
  1  3  2  0  0  0  0
  1  5  1  0  0  0  0
  2 10  1  0  0  0  0
  2 13  2  0  0  0  0
  3 11  1  0  0  0  0
  3 12  1  0  0  0  0
  4  6  1  0  0  0  0
  4  7  1  0  0  0  0
  4 17  2  0  0  0  0
  5 15  2  0  0  0  0
  5 29  1  0  0  0  0
  6 14  1  0  0  0  0
  6 30  1  0  0  0  0
  7 15  1  0  0  0  0
  7 31  1  0  0  0  0
  8  9  2  0  0  0  0
  8 16  1  0  0  0  0
  8 20  1  0  0  0  0
  9 14  1  0  0  0  0
  9 32  1  0  0  0  0
 10 23  1  0  0  0  0
 10 24  1  0  0  0  0
 11 19  2  0  0  0  0
 11 33  1  0  0  0  0
 12 25  1  0  0  0  0
 12 26  1  0  0  0  0
 14 21  2  0  0  0  0
 15 19  1  0  0  0  0
 16 18  2  0  0  0  0
 16 22  1  0  0  0  0
 18 21  1  0  0  0  0
 18 34  1  0  0  0  0
 19 35  1  0  0  0  0
 21 36  1  0  0  0  0
 23 28  1  0  0  0  0
 23 37  1  0  0  0  0
 23 38  1  0  0  0  0
 24 27  1  0  0  0  0
 24 39  1  0  0  0  0
 24 40  1  0  0  0  0
 25 41  1  0  0  0  0
 25 42  1  0  0  0  0
 25 43  1  0  0  0  0
 26 44  1  0  0  0  0
 26 45  1  0  0  0  0
 26 46  1  0  0  0  0
 27 47  1  0  0  0  0
 27 48  1  0  0  0  0
 27 49  1  0  0  0  0
 28 50  1  0  0  0  0
 28 51  1  0  0  0  0
 28 52  1  0  0  0  0
M  END
>  <$CLUSTER>
387

>  <INDEX>
240900

$$$$
Comgenex CGX-3091685
  MOE2020           3D

 43 46  0  0  1  0  0  0  0  0999 V2000
   -0.5850    0.3560    1.8640 N   0  0  0  0  0  0  0  0  0  0  0  0
    0.0010   -0.6390    1.2360 C   0  0  0  0  0  0  0  0  0  0  0  0
   -0.8270    0.0530   -1.7160 C   0  0  0  0  0  0  0  0  0  0  0  0
    0.3100    0.3180   -0.9630 N   0  0  0  0  0  0  0  0  0  0  0  0
   -1.1920   -0.2880    2.9020 C   0  0  0  0  0  0  0  0  0  0  0  0
   -1.0110   -1.6100    2.9490 N   0  0  0  0  0  0  0  0  0  0  0  0
   -0.2070   -1.8530    1.8310 O   0  0  0  0  0  0  0  0  0  0  0  0
    0.8440   -0.6370    0.0100 C   0  0  3  0  0  0  0  0  0  0  0  0
   -1.1790    1.0360   -2.6160 N   0  0  0  0  0  0  0  0  0  0  0  0
   -4.2140    0.3300   -4.6320 C   0  0  0  0  0  0  0  0  0  0  0  0
   -3.1870    0.1630   -3.6960 C   0  0  0  0  0  0  0  0  0  0  0  0
   -1.9870    0.4620    3.8890 C   0  0  0  0  0  0  0  0  0  0  0  0
   -1.4900   -0.9810   -1.6100 O   0  0  0  0  0  0  0  0  0  0  0  0
   -2.2160    1.1550   -3.5300 C   0  0  0  0  0  0  0  0  0  0  0  0
   -4.2810    1.4860   -5.4060 C   0  0  0  0  0  0  0  0  0  0  0  0
   -2.6120   -0.1950    4.9600 C   0  0  0  0  0  0  0  0  0  0  0  0
   -2.1320    1.8520    3.7760 C   0  0  0  0  0  0  0  0  0  0  0  0
   -3.3200    2.4800   -5.2480 C   0  0  0  0  0  0  0  0  0  0  0  0
    1.1430    1.5170   -1.0410 C   0  0  0  0  0  0  0  0  0  0  0  0
   -5.0930   -0.6730   -4.7190 F   0  0  0  0  0  0  0  0  0  0  0  0
   -2.2940    2.3150   -4.3150 C   0  0  0  0  0  0  0  0  0  0  0  0
   -3.5020    1.9040    5.7680 C   0  0  0  0  0  0  0  0  0  0  0  0
   -5.2270    1.7160   -6.3160 F   0  0  0  0  0  0  0  0  0  0  0  0
   -2.8850    2.5680    4.7100 C   0  0  0  0  0  0  0  0  0  0  0  0
   -3.3650    0.5230    5.8930 C   0  0  0  0  0  0  0  0  0  0  0  0
   -4.2020    2.6600    6.6130 F   0  0  0  0  0  0  0  0  0  0  0  0
    2.2600   -0.1290    0.2840 C   0  0  0  0  0  0  0  0  0  0  0  0
    2.1410    1.3810    0.1010 C   0  0  0  0  0  0  0  0  0  0  0  0
    0.8500   -1.6680   -0.3450 H   0  0  0  0  0  0  0  0  0  0  0  0
   -0.5560    1.8310   -2.6090 H   0  0  0  0  0  0  0  0  0  0  0  0
   -3.1440   -0.7360   -3.0990 H   0  0  0  0  0  0  0  0  0  0  0  0
   -2.5100   -1.2650    5.0640 H   0  0  0  0  0  0  0  0  0  0  0  0
   -1.6570    2.3740    2.9590 H   0  0  0  0  0  0  0  0  0  0  0  0
   -3.3680    3.3780   -5.8460 H   0  0  0  0  0  0  0  0  0  0  0  0
    0.5360    2.4140   -0.9140 H   0  0  0  0  0  0  0  0  0  0  0  0
    1.6610    1.5610   -1.9990 H   0  0  0  0  0  0  0  0  0  0  0  0
   -1.5510    3.0900   -4.1960 H   0  0  0  0  0  0  0  0  0  0  0  0
   -2.9890    3.6380    4.6120 H   0  0  0  0  0  0  0  0  0  0  0  0
   -3.8420    0.0060    6.7130 H   0  0  0  0  0  0  0  0  0  0  0  0
    2.9700   -0.5520   -0.4270 H   0  0  0  0  0  0  0  0  0  0  0  0
    2.5720   -0.3750    1.2990 H   0  0  0  0  0  0  0  0  0  0  0  0
    1.7650    1.8560    1.0070 H   0  0  0  0  0  0  0  0  0  0  0  0
    3.1030    1.8190   -0.1660 H   0  0  0  0  0  0  0  0  0  0  0  0
  1  2  2  0  0  0  0
  1  5  1  0  0  0  0
  2  7  1  0  0  0  0
  2  8  1  0  0  0  0
  3  4  1  0  0  0  0
  3  9  1  0  0  0  0
  3 13  2  0  0  0  0
  4  8  1  0  0  0  0
  4 19  1  0  0  0  0
  5  6  2  0  0  0  0
  5 12  1  0  0  0  0
  6  7  1  0  0  0  0
  8 27  1  0  0  0  0
  8 29  1  0  0  0  0
  9 14  1  0  0  0  0
  9 30  1  0  0  0  0
 10 11  2  0  0  0  0
 10 15  1  0  0  0  0
 10 20  1  0  0  0  0
 11 14  1  0  0  0  0
 11 31  1  0  0  0  0
 12 16  1  0  0  0  0
 12 17  2  0  0  0  0
 14 21  2  0  0  0  0
 15 18  2  0  0  0  0
 15 23  1  0  0  0  0
 16 25  2  0  0  0  0
 16 32  1  0  0  0  0
 17 24  1  0  0  0  0
 17 33  1  0  0  0  0
 18 21  1  0  0  0  0
 18 34  1  0  0  0  0
 19 28  1  0  0  0  0
 19 35  1  0  0  0  0
 19 36  1  0  0  0  0
 21 37  1  0  0  0  0
 22 24  2  0  0  0  0
 22 25  1  0  0  0  0
 22 26  1  0  0  0  0
 24 38  1  0  0  0  0
 25 39  1  0  0  0  0
 27 28  1  0  0  0  0
 27 40  1  0  0  0  0
 27 41  1  0  0  0  0
 28 42  1  0  0  0  0
 28 43  1  0  0  0  0
M  END
>  <$CLUSTER>
388

>  <INDEX>
258145

$$$$
Comgenex CGX-3091238
  MOE2020           3D

 51 55  0  0  1  0  0  0  0  0999 V2000
    1.0850   -0.1040   -2.1450 N   0  0  0  0  0  0  0  0  0  0  0  0
    0.3600    0.7180   -1.4200 C   0  0  0  0  0  0  0  0  0  0  0  0
   -1.3690   -0.7450   -0.5550 N   0  0  0  0  0  0  0  0  0  0  0  0
    2.2920    0.5300   -2.1600 C   0  0  0  0  0  0  0  0  0  0  0  0
   -0.9600   -1.3800    0.6100 C   0  0  0  0  0  0  0  0  0  0  0  0
    2.3500    1.6850   -1.4940 N   0  0  0  0  0  0  0  0  0  0  0  0
    1.0510    1.8190   -0.9940 O   0  0  0  0  0  0  0  0  0  0  0  0
   -1.0630    0.6240   -0.9970 C   0  0  3  0  0  0  0  0  0  0  0  0
   -0.1290   -0.6140    1.5460 C   0  0  0  0  0  0  0  0  0  0  0  0
    3.4370   -0.0540   -2.8800 C   0  0  0  0  0  0  0  0  0  0  0  0
    1.2350   -0.9000    1.6270 C   0  0  0  0  0  0  0  0  0  0  0  0
   -1.2310   -2.5370    0.9190 O   0  0  0  0  0  0  0  0  0  0  0  0
    2.0290   -0.1850    2.5230 C   0  0  0  0  0  0  0  0  0  0  0  0
   -0.7140    0.3500    2.3690 C   0  0  0  0  0  0  0  0  0  0  0  0
    4.6820    0.5940   -2.9010 C   0  0  0  0  0  0  0  0  0  0  0  0
    1.4570    0.7940    3.3380 C   0  0  0  0  0  0  0  0  0  0  0  0
    0.0870    1.0580    3.2630 C   0  0  0  0  0  0  0  0  0  0  0  0
   -2.2240   -1.4300   -1.5170 C   0  0  0  0  0  0  0  0  0  0  0  0
    5.7640    0.0330   -3.5850 C   0  0  0  0  0  0  0  0  0  0  0  0
   -2.0250    0.8570   -2.1650 C   0  0  0  0  0  0  0  0  0  0  0  0
    6.9230    0.7790   -3.5220 O   0  0  0  0  0  0  0  0  0  0  0  0
    3.3020   -1.2740   -3.5590 C   0  0  0  0  0  0  0  0  0  0  0  0
   -2.2290   -0.5390   -2.7480 C   0  0  0  0  0  0  0  0  0  0  0  0
    4.3860   -1.8320   -4.2420 C   0  0  0  0  0  0  0  0  0  0  0  0
    3.4170   -0.4450    2.6140 C   0  0  0  0  0  0  0  0  0  0  0  0
    5.6160   -1.1790   -4.2560 C   0  0  0  0  0  0  0  0  0  0  0  0
    2.2760    1.5070    4.2530 C   0  0  0  0  0  0  0  0  0  0  0  0
    8.0590    0.2550   -4.2020 C   0  0  0  0  0  0  0  0  0  0  0  0
    4.2120    0.2650    3.5130 C   0  0  0  0  0  0  0  0  0  0  0  0
    3.6430    1.2390    4.3310 C   0  0  0  0  0  0  0  0  0  0  0  0
   -1.1890    1.3730   -0.2150 H   0  0  0  0  0  0  0  0  0  0  0  0
    1.6700   -1.6660    1.0030 H   0  0  0  0  0  0  0  0  0  0  0  0
   -1.7750    0.5450    2.3140 H   0  0  0  0  0  0  0  0  0  0  0  0
    4.8050    1.5340   -2.3840 H   0  0  0  0  0  0  0  0  0  0  0  0
   -0.3520    1.8120    3.8990 H   0  0  0  0  0  0  0  0  0  0  0  0
   -3.2330   -1.5410   -1.1210 H   0  0  0  0  0  0  0  0  0  0  0  0
   -1.8180   -2.4130   -1.7580 H   0  0  0  0  0  0  0  0  0  0  0  0
   -1.5850    1.5270   -2.9040 H   0  0  0  0  0  0  0  0  0  0  0  0
   -2.9690    1.2740   -1.8140 H   0  0  0  0  0  0  0  0  0  0  0  0
    2.3520   -1.7870   -3.5540 H   0  0  0  0  0  0  0  0  0  0  0  0
   -3.1800   -0.6070   -3.2770 H   0  0  0  0  0  0  0  0  0  0  0  0
   -1.4170   -0.8030   -3.4250 H   0  0  0  0  0  0  0  0  0  0  0  0
    4.2700   -2.7720   -4.7600 H   0  0  0  0  0  0  0  0  0  0  0  0
    3.8640   -1.1990    1.9830 H   0  0  0  0  0  0  0  0  0  0  0  0
    6.4530   -1.6110   -4.7850 H   0  0  0  0  0  0  0  0  0  0  0  0
    1.8390    2.2600    4.8920 H   0  0  0  0  0  0  0  0  0  0  0  0
    8.9030    0.9340   -4.0760 H   0  0  0  0  0  0  0  0  0  0  0  0
    7.8310    0.1510   -5.2630 H   0  0  0  0  0  0  0  0  0  0  0  0
    8.3120   -0.7210   -3.7880 H   0  0  0  0  0  0  0  0  0  0  0  0
    5.2700    0.0600    3.5750 H   0  0  0  0  0  0  0  0  0  0  0  0
    4.2610    1.7870    5.0260 H   0  0  0  0  0  0  0  0  0  0  0  0
  1  2  2  0  0  0  0
  1  4  1  0  0  0  0
  2  7  1  0  0  0  0
  2  8  1  0  0  0  0
  3  5  1  0  0  0  0
  3  8  1  0  0  0  0
  3 18  1  0  0  0  0
  4  6  2  0  0  0  0
  4 10  1  0  0  0  0
  5  9  1  0  0  0  0
  5 12  2  0  0  0  0
  6  7  1  0  0  0  0
  8 20  1  0  0  0  0
  8 31  1  0  0  0  0
  9 11  2  0  0  0  0
  9 14  1  0  0  0  0
 10 15  2  0  0  0  0
 10 22  1  0  0  0  0
 11 13  1  0  0  0  0
 11 32  1  0  0  0  0
 13 16  2  0  0  0  0
 13 25  1  0  0  0  0
 14 17  2  0  0  0  0
 14 33  1  0  0  0  0
 15 19  1  0  0  0  0
 15 34  1  0  0  0  0
 16 17  1  0  0  0  0
 16 27  1  0  0  0  0
 17 35  1  0  0  0  0
 18 23  1  0  0  0  0
 18 36  1  0  0  0  0
 18 37  1  0  0  0  0
 19 21  1  0  0  0  0
 19 26  2  0  0  0  0
 20 23  1  0  0  0  0
 20 38  1  0  0  0  0
 20 39  1  0  0  0  0
 21 28  1  0  0  0  0
 22 24  2  0  0  0  0
 22 40  1  0  0  0  0
 23 41  1  0  0  0  0
 23 42  1  0  0  0  0
 24 26  1  0  0  0  0
 24 43  1  0  0  0  0
 25 29  2  0  0  0  0
 25 44  1  0  0  0  0
 26 45  1  0  0  0  0
 27 30  2  0  0  0  0
 27 46  1  0  0  0  0
 28 47  1  0  0  0  0
 28 48  1  0  0  0  0
 28 49  1  0  0  0  0
 29 30  1  0  0  0  0
 29 50  1  0  0  0  0
 30 51  1  0  0  0  0
M  END
>  <$CLUSTER>
389

>  <INDEX>
258027

$$$$
Comgenex CGX-3084902
  MOE2020           3D

 44 46  0  0  0  0  0  0  0  0999 V2000
   -0.6320   -0.0310   -1.2140 C   0  0  0  0  0  0  0  0  0  0  0  0
    0.5650   -0.4810   -0.6490 N   0  0  0  0  0  0  0  0  0  0  0  0
    1.3460   -1.0930   -1.5830 N   0  0  0  0  0  0  0  0  0  0  0  0
   -0.6810   -0.5910   -2.4750 C   0  0  0  0  0  0  0  0  0  0  0  0
    0.5610   -1.2110   -2.6500 C   0  0  0  0  0  0  0  0  0  0  0  0
   -1.4970    0.8460   -0.5820 N   0  0  0  0  0  0  0  0  0  0  0  0
    1.0380   -0.4020    0.6940 C   0  0  0  0  0  0  0  0  0  0  0  0
   -2.7220    1.2240   -1.1150 C   0  0  0  0  0  0  0  0  0  0  0  0
    2.4160   -0.5130    0.9420 C   0  0  0  0  0  0  0  0  0  0  0  0
   -6.8180    4.0810   -0.3550 C   0  0  0  0  0  0  0  0  0  0  0  0
    0.9920   -1.9050   -3.8420 C   0  0  0  0  0  0  0  0  0  0  0  0
   -3.2330    0.8470   -2.1650 O   0  0  0  0  0  0  0  0  0  0  0  0
   -7.2290    3.6310   -1.4470 O   0  0  0  0  0  0  0  0  0  0  0  0
    2.9040   -0.4530    2.2490 C   0  0  0  0  0  0  0  0  0  0  0  0
   -7.4200    4.9220    0.4270 O   0  5  0  0  0  0  0  0  0  0  0  0
    4.5770   -0.5650    2.5490 Cl  0  0  0  0  0  0  0  0  0  0  0  0
    0.1590   -0.2770    1.7760 C   0  0  0  0  0  0  0  0  0  0  0  0
   -3.4300    2.2030   -0.2130 C   0  0  0  0  0  0  0  0  0  0  0  0
   -5.4700    3.6350    0.1790 C   0  0  0  0  0  0  0  0  0  0  0  0
   -4.7830    2.6580   -0.7390 C   0  0  0  0  0  0  0  0  0  0  0  0
    0.6550   -0.2200    3.0810 C   0  0  0  0  0  0  0  0  0  0  0  0
    2.1460   -2.6990   -3.8310 C   0  0  0  0  0  0  0  0  0  0  0  0
    0.2520   -1.7850   -5.0220 C   0  0  0  0  0  0  0  0  0  0  0  0
    2.0250   -0.3010    3.3180 C   0  0  0  0  0  0  0  0  0  0  0  0
    0.6590   -2.4620   -6.1770 C   0  0  0  0  0  0  0  0  0  0  0  0
    2.5500   -3.3740   -4.9860 C   0  0  0  0  0  0  0  0  0  0  0  0
    1.8050   -3.2560   -6.1570 C   0  0  0  0  0  0  0  0  0  0  0  0
   -1.5020   -0.5580   -3.1760 H   0  0  0  0  0  0  0  0  0  0  0  0
   -1.2230    1.2300    0.3110 H   0  0  0  0  0  0  0  0  0  0  0  0
    3.1010   -0.6450    0.1180 H   0  0  0  0  0  0  0  0  0  0  0  0
   -0.9060   -0.2240    1.6020 H   0  0  0  0  0  0  0  0  0  0  0  0
   -2.7950    3.0810   -0.0940 H   0  0  0  0  0  0  0  0  0  0  0  0
   -3.5810    1.7290    0.7570 H   0  0  0  0  0  0  0  0  0  0  0  0
   -5.6180    3.1600    1.1490 H   0  0  0  0  0  0  0  0  0  0  0  0
   -4.8330    4.5120    0.2970 H   0  0  0  0  0  0  0  0  0  0  0  0
   -5.4220    1.7830   -0.8570 H   0  0  0  0  0  0  0  0  0  0  0  0
   -4.6370    3.1350   -1.7080 H   0  0  0  0  0  0  0  0  0  0  0  0
   -0.0280   -0.1130    3.9110 H   0  0  0  0  0  0  0  0  0  0  0  0
    2.7270   -2.7900   -2.9250 H   0  0  0  0  0  0  0  0  0  0  0  0
   -0.6350   -1.1690   -5.0420 H   0  0  0  0  0  0  0  0  0  0  0  0
    2.4040   -0.2460    4.3280 H   0  0  0  0  0  0  0  0  0  0  0  0
    0.0840   -2.3690   -7.0860 H   0  0  0  0  0  0  0  0  0  0  0  0
    3.4390   -3.9870   -4.9710 H   0  0  0  0  0  0  0  0  0  0  0  0
    2.1150   -3.7790   -7.0490 H   0  0  0  0  0  0  0  0  0  0  0  0
  1  2  1  0  0  0  0
  1  4  2  0  0  0  0
  1  6  1  0  0  0  0
  2  3  1  0  0  0  0
  2  7  1  0  0  0  0
  3  5  2  0  0  0  0
  4  5  1  0  0  0  0
  4 28  1  0  0  0  0
  5 11  1  0  0  0  0
  6  8  1  0  0  0  0
  6 29  1  0  0  0  0
  7  9  2  0  0  0  0
  7 17  1  0  0  0  0
  8 12  2  0  0  0  0
  8 18  1  0  0  0  0
  9 14  1  0  0  0  0
  9 30  1  0  0  0  0
 10 13  2  0  0  0  0
 10 15  1  0  0  0  0
 10 19  1  0  0  0  0
 11 22  1  0  0  0  0
 11 23  2  0  0  0  0
 14 16  1  0  0  0  0
 14 24  2  0  0  0  0
 17 21  2  0  0  0  0
 17 31  1  0  0  0  0
 18 20  1  0  0  0  0
 18 32  1  0  0  0  0
 18 33  1  0  0  0  0
 19 20  1  0  0  0  0
 19 34  1  0  0  0  0
 19 35  1  0  0  0  0
 20 36  1  0  0  0  0
 20 37  1  0  0  0  0
 21 24  1  0  0  0  0
 21 38  1  0  0  0  0
 22 26  2  0  0  0  0
 22 39  1  0  0  0  0
 23 25  1  0  0  0  0
 23 40  1  0  0  0  0
 24 41  1  0  0  0  0
 25 27  2  0  0  0  0
 25 42  1  0  0  0  0
 26 27  1  0  0  0  0
 26 43  1  0  0  0  0
 27 44  1  0  0  0  0
M  CHG  1  15  -1
M  END
>  <$CLUSTER>
390

>  <INDEX>
257751

$$$$
Comgenex CGX-3127127
  MOE2020           3D

 50 52  0  0  1  0  0  0  0  0999 V2000
    1.4260   -0.4320   -0.7710 S   0  0  0  0  0  0  0  0  0  0  0  0
   -0.2210   -0.4340   -0.3150 C   0  0  0  0  0  0  0  0  0  0  0  0
    1.2320   -2.0770   -1.2040 C   0  0  0  0  0  0  0  0  0  0  0  0
    0.0230   -2.5540   -1.0090 N   0  0  0  0  0  0  0  0  0  0  0  0
   -0.8550    0.6850    0.1920 N   0  0  0  0  0  0  0  0  0  0  0  0
   -0.8240   -1.5930   -0.4900 N   0  0  0  0  0  0  0  0  0  0  0  0
   -0.2910    1.9350    0.4050 C   0  0  0  0  0  0  0  0  0  0  0  0
   -2.3900    3.2290   -0.0020 N   0  0  0  0  0  0  0  0  0  0  0  0
   -3.6830    3.4810    0.3370 C   0  0  0  0  0  0  0  0  0  0  0  0
   -1.3070    2.8960    0.9710 C   0  0  3  0  0  0  0  0  0  0  0  0
    2.3530   -2.8960   -1.7570 C   0  0  0  0  0  0  0  0  0  0  0  0
   -4.5420    3.7550   -0.8670 C   0  0  0  0  0  0  0  0  0  0  0  0
    0.8620    2.2980    0.1920 O   0  0  0  0  0  0  0  0  0  0  0  0
   -4.1300    3.5270    1.4810 O   0  0  0  0  0  0  0  0  0  0  0  0
    2.1100   -4.2360   -2.1100 C   0  0  0  0  0  0  0  0  0  0  0  0
    3.6520   -2.3950   -1.9480 C   0  0  0  0  0  0  0  0  0  0  0  0
   -5.7170    4.5350   -0.6290 C   0  0  0  0  0  0  0  0  0  0  0  0
   -4.3140    3.2410   -2.1140 C   0  0  0  0  0  0  0  0  0  0  0  0
   -0.7010    4.2310    1.4600 C   0  0  0  0  0  0  0  0  0  0  0  0
   -6.3210    4.2980   -2.9560 C   0  0  0  0  0  0  0  0  0  0  0  0
   -6.5870    4.8070   -1.6870 C   0  0  0  0  0  0  0  0  0  0  0  0
   -5.1880    3.5150   -3.1690 C   0  0  0  0  0  0  0  0  0  0  0  0
    3.1250   -5.0440   -2.6320 C   0  0  0  0  0  0  0  0  0  0  0  0
    4.6660   -3.2040   -2.4700 C   0  0  0  0  0  0  0  0  0  0  0  0
    4.4030   -4.5280   -2.8120 C   0  0  0  0  0  0  0  0  0  0  0  0
   -7.3880    4.6410   -4.2380 Cl  0  0  0  0  0  0  0  0  0  0  0  0
   -1.6560    5.1170    2.2550 C   0  0  0  0  0  0  0  0  0  0  0  0
    0.0040    5.0600    0.3800 C   0  0  0  0  0  0  0  0  0  0  0  0
    5.4860   -5.3900   -3.3700 C   0  0  0  0  0  0  0  0  0  0  0  0
   -1.8310    0.5820    0.4330 H   0  0  0  0  0  0  0  0  0  0  0  0
   -2.1450    3.2700   -0.9810 H   0  0  0  0  0  0  0  0  0  0  0  0
   -1.7160    2.3550    1.8250 H   0  0  0  0  0  0  0  0  0  0  0  0
    1.1210   -4.6480   -1.9750 H   0  0  0  0  0  0  0  0  0  0  0  0
    3.8700   -1.3700   -1.6880 H   0  0  0  0  0  0  0  0  0  0  0  0
   -5.9300    4.9110    0.3610 H   0  0  0  0  0  0  0  0  0  0  0  0
   -3.4490    2.6170   -2.2850 H   0  0  0  0  0  0  0  0  0  0  0  0
    0.0670    3.8770    2.1480 H   0  0  0  0  0  0  0  0  0  0  0  0
   -7.4660    5.4120   -1.5210 H   0  0  0  0  0  0  0  0  0  0  0  0
   -4.9850    3.1190   -4.1530 H   0  0  0  0  0  0  0  0  0  0  0  0
    2.9160   -6.0700   -2.8960 H   0  0  0  0  0  0  0  0  0  0  0  0
    5.6580   -2.8000   -2.6090 H   0  0  0  0  0  0  0  0  0  0  0  0
   -2.4400    5.4900    1.5950 H   0  0  0  0  0  0  0  0  0  0  0  0
   -1.1050    5.9580    2.6770 H   0  0  0  0  0  0  0  0  0  0  0  0
   -2.1050    4.5360    3.0610 H   0  0  0  0  0  0  0  0  0  0  0  0
   -0.7330    5.4340   -0.3300 H   0  0  0  0  0  0  0  0  0  0  0  0
    0.7280    4.4350   -0.1430 H   0  0  0  0  0  0  0  0  0  0  0  0
    0.5190    5.9010    0.8450 H   0  0  0  0  0  0  0  0  0  0  0  0
    5.0900   -6.3850   -3.5740 H   0  0  0  0  0  0  0  0  0  0  0  0
    6.3000   -5.4640   -2.6490 H   0  0  0  0  0  0  0  0  0  0  0  0
    5.8590   -4.9510   -4.2950 H   0  0  0  0  0  0  0  0  0  0  0  0
  1  2  1  0  0  0  0
  1  3  1  0  0  0  0
  2  5  1  0  0  0  0
  2  6  2  0  0  0  0
  3  4  2  0  0  0  0
  3 11  1  0  0  0  0
  4  6  1  0  0  0  0
  5  7  1  0  0  0  0
  5 30  1  0  0  0  0
  7 10  1  0  0  0  0
  7 13  2  0  0  0  0
  8  9  1  0  0  0  0
  8 10  1  0  0  0  0
  8 31  1  0  0  0  0
  9 12  1  0  0  0  0
  9 14  2  0  0  0  0
 10 19  1  0  0  0  0
 10 32  1  0  0  0  0
 11 15  2  0  0  0  0
 11 16  1  0  0  0  0
 12 17  2  0  0  0  0
 12 18  1  0  0  0  0
 15 23  1  0  0  0  0
 15 33  1  0  0  0  0
 16 24  2  0  0  0  0
 16 34  1  0  0  0  0
 17 21  1  0  0  0  0
 17 35  1  0  0  0  0
 18 22  2  0  0  0  0
 18 36  1  0  0  0  0
 19 27  1  0  0  0  0
 19 28  1  0  0  0  0
 19 37  1  0  0  0  0
 20 21  2  0  0  0  0
 20 22  1  0  0  0  0
 20 26  1  0  0  0  0
 21 38  1  0  0  0  0
 22 39  1  0  0  0  0
 23 25  2  0  0  0  0
 23 40  1  0  0  0  0
 24 25  1  0  0  0  0
 24 41  1  0  0  0  0
 25 29  1  0  0  0  0
 27 42  1  0  0  0  0
 27 43  1  0  0  0  0
 27 44  1  0  0  0  0
 28 45  1  0  0  0  0
 28 46  1  0  0  0  0
 28 47  1  0  0  0  0
 29 48  1  0  0  0  0
 29 49  1  0  0  0  0
 29 50  1  0  0  0  0
M  END
>  <$CLUSTER>
391

>  <INDEX>
260085

$$$$
Comgenex CGX-3100926
  MOE2020           3D

 62 64  0  0  1  0  0  0  0  0999 V2000
    1.9300    1.0270    0.3820 N   0  0  0  0  0  0  0  0  0  0  0  0
    0.7400    1.0350   -0.1760 C   0  0  0  0  0  0  0  0  0  0  0  0
    2.7080    1.5440   -0.6120 C   0  0  0  0  0  0  0  0  0  0  0  0
   -0.8050   -0.8160   -0.0190 N   0  0  0  0  0  0  0  0  0  0  0  0
   -1.6170   -1.1010   -1.1210 C   0  0  0  0  0  0  0  0  0  0  0  0
    2.0700    1.8670   -1.7390 N   0  0  0  0  0  0  0  0  0  0  0  0
    0.7440    1.5260   -1.4530 O   0  0  0  0  0  0  0  0  0  0  0  0
   -0.5800    0.5920    0.3600 C   0  0  3  0  0  0  0  0  0  0  0  0
   -0.8770   -2.9720   -2.5530 N   0  0  0  0  0  0  0  0  0  0  0  0
   -1.7920   -2.5550   -1.4810 C   0  0  0  0  0  0  0  0  0  0  0  0
   -1.2440   -2.6730   -3.8750 C   0  0  0  0  0  0  0  0  0  0  0  0
    4.1570    1.7200   -0.4160 C   0  0  0  0  0  0  0  0  0  0  0  0
   -2.1810   -0.2410   -1.8030 O   0  0  0  0  0  0  0  0  0  0  0  0
    4.9630    2.2500   -1.4350 C   0  0  0  0  0  0  0  0  0  0  0  0
   -2.2600   -2.0390   -4.1730 O   0  0  0  0  0  0  0  0  0  0  0  0
    0.3520   -3.7320   -2.1900 C   0  0  0  0  0  0  0  0  0  0  0  0
    6.3370    2.4150   -1.2430 C   0  0  0  0  0  0  0  0  0  0  0  0
   -0.1110   -1.8320    0.7900 C   0  0  0  0  0  0  0  0  0  0  0  0
    7.3090    3.0600   -2.4830 Cl  0  0  0  0  0  0  0  0  0  0  0  0
   -0.7300    0.8160    1.8720 C   0  0  0  0  0  0  0  0  0  0  0  0
   -0.3310   -3.1540   -4.9750 C   0  0  0  0  0  0  0  0  0  0  0  0
    4.7590    1.3580    0.7980 C   0  0  0  0  0  0  0  0  0  0  0  0
    6.1340    1.5240    0.9880 C   0  0  0  0  0  0  0  0  0  0  0  0
    6.9220    2.0510   -0.0320 C   0  0  0  0  0  0  0  0  0  0  0  0
    0.0100   -5.1850   -1.8510 C   0  0  0  0  0  0  0  0  0  0  0  0
    1.1560   -3.0780   -1.0650 C   0  0  0  0  0  0  0  0  0  0  0  0
   -0.7370   -2.8290   -6.3480 C   0  0  0  0  0  0  0  0  0  0  0  0
   -0.3720   -1.6360    2.2790 C   0  0  0  0  0  0  0  0  0  0  0  0
    0.2020   -3.3280   -7.4170 C   0  0  0  0  0  0  0  0  0  0  0  0
   -0.0020   -0.2260    2.7210 C   0  0  0  0  0  0  0  0  0  0  0  0
   -0.2340   -2.9820   -8.8250 C   0  0  0  0  0  0  0  0  0  0  0  0
   -1.3530    1.2150   -0.0890 H   0  0  0  0  0  0  0  0  0  0  0  0
   -2.8180   -2.7140   -1.8130 H   0  0  0  0  0  0  0  0  0  0  0  0
   -1.5980   -3.1620   -0.5970 H   0  0  0  0  0  0  0  0  0  0  0  0
    4.5170    2.5330   -2.3770 H   0  0  0  0  0  0  0  0  0  0  0  0
    0.9960   -3.7180   -3.0690 H   0  0  0  0  0  0  0  0  0  0  0  0
    0.9610   -1.7590    0.6060 H   0  0  0  0  0  0  0  0  0  0  0  0
   -0.4640   -2.8200    0.4960 H   0  0  0  0  0  0  0  0  0  0  0  0
   -1.7910    0.7840    2.1210 H   0  0  0  0  0  0  0  0  0  0  0  0
   -0.3290    1.8000    2.1160 H   0  0  0  0  0  0  0  0  0  0  0  0
   -0.2610   -4.2390   -4.8980 H   0  0  0  0  0  0  0  0  0  0  0  0
    0.6520   -2.7140   -4.8070 H   0  0  0  0  0  0  0  0  0  0  0  0
    4.1550    0.9470    1.5930 H   0  0  0  0  0  0  0  0  0  0  0  0
    6.5860    1.2430    1.9280 H   0  0  0  0  0  0  0  0  0  0  0  0
    7.9840    2.1770    0.1150 H   0  0  0  0  0  0  0  0  0  0  0  0
   -0.6350   -5.2110   -0.9720 H   0  0  0  0  0  0  0  0  0  0  0  0
    0.9280   -5.7360   -1.6450 H   0  0  0  0  0  0  0  0  0  0  0  0
   -0.5070   -5.6430   -2.6940 H   0  0  0  0  0  0  0  0  0  0  0  0
    0.5590   -3.0630   -0.1530 H   0  0  0  0  0  0  0  0  0  0  0  0
    1.4130   -2.0570   -1.3480 H   0  0  0  0  0  0  0  0  0  0  0  0
    2.0690   -3.6480   -0.8920 H   0  0  0  0  0  0  0  0  0  0  0  0
   -0.8050   -1.7450   -6.4340 H   0  0  0  0  0  0  0  0  0  0  0  0
   -1.7180   -3.2690   -6.5250 H   0  0  0  0  0  0  0  0  0  0  0  0
    0.2250   -2.3530    2.8420 H   0  0  0  0  0  0  0  0  0  0  0  0
   -1.4300   -1.8060    2.4800 H   0  0  0  0  0  0  0  0  0  0  0  0
    0.2700   -4.4130   -7.3350 H   0  0  0  0  0  0  0  0  0  0  0  0
    1.1840   -2.8880   -7.2440 H   0  0  0  0  0  0  0  0  0  0  0  0
   -0.2810   -0.0940    3.7660 H   0  0  0  0  0  0  0  0  0  0  0  0
    1.0740   -0.0880    2.6120 H   0  0  0  0  0  0  0  0  0  0  0  0
   -1.2160   -3.4140   -9.0180 H   0  0  0  0  0  0  0  0  0  0  0  0
    0.4860   -3.3850   -9.5380 H   0  0  0  0  0  0  0  0  0  0  0  0
   -0.2860   -1.8990   -8.9330 H   0  0  0  0  0  0  0  0  0  0  0  0
  1  2  2  0  0  0  0
  1  3  1  0  0  0  0
  2  7  1  0  0  0  0
  2  8  1  0  0  0  0
  3  6  2  0  0  0  0
  3 12  1  0  0  0  0
  4  5  1  0  0  0  0
  4  8  1  0  0  0  0
  4 18  1  0  0  0  0
  5 10  1  0  0  0  0
  5 13  2  0  0  0  0
  6  7  1  0  0  0  0
  8 20  1  0  0  0  0
  8 32  1  0  0  0  0
  9 10  1  0  0  0  0
  9 11  1  0  0  0  0
  9 16  1  0  0  0  0
 10 33  1  0  0  0  0
 10 34  1  0  0  0  0
 11 15  2  0  0  0  0
 11 21  1  0  0  0  0
 12 14  2  0  0  0  0
 12 22  1  0  0  0  0
 14 17  1  0  0  0  0
 14 35  1  0  0  0  0
 16 25  1  0  0  0  0
 16 26  1  0  0  0  0
 16 36  1  0  0  0  0
 17 19  1  0  0  0  0
 17 24  2  0  0  0  0
 18 28  1  0  0  0  0
 18 37  1  0  0  0  0
 18 38  1  0  0  0  0
 20 30  1  0  0  0  0
 20 39  1  0  0  0  0
 20 40  1  0  0  0  0
 21 27  1  0  0  0  0
 21 41  1  0  0  0  0
 21 42  1  0  0  0  0
 22 23  2  0  0  0  0
 22 43  1  0  0  0  0
 23 24  1  0  0  0  0
 23 44  1  0  0  0  0
 24 45  1  0  0  0  0
 25 46  1  0  0  0  0
 25 47  1  0  0  0  0
 25 48  1  0  0  0  0
 26 49  1  0  0  0  0
 26 50  1  0  0  0  0
 26 51  1  0  0  0  0
 27 29  1  0  0  0  0
 27 52  1  0  0  0  0
 27 53  1  0  0  0  0
 28 30  1  0  0  0  0
 28 54  1  0  0  0  0
 28 55  1  0  0  0  0
 29 31  1  0  0  0  0
 29 56  1  0  0  0  0
 29 57  1  0  0  0  0
 30 58  1  0  0  0  0
 30 59  1  0  0  0  0
 31 60  1  0  0  0  0
 31 61  1  0  0  0  0
 31 62  1  0  0  0  0
M  END
>  <$CLUSTER>
392

>  <INDEX>
258189

$$$$
Comgenex CGX-3123224
  MOE2020           3D

 51 53  0  0  0  0  0  0  0  0999 V2000
   -0.0930   -0.3110    0.4280 C   0  0  0  0  0  0  0  0  0  0  0  0
   -0.0180   -0.5750    1.7160 N   0  0  0  0  0  0  0  0  0  0  0  0
   -0.0400   -1.6730   -0.6050 S   0  0  0  0  0  0  0  0  0  0  0  0
   -2.3020    3.2240   -3.0460 C   0  0  0  0  0  0  0  0  0  0  0  0
   -1.8040    3.3070   -1.7400 N   0  0  0  0  0  0  0  0  0  0  0  0
   -0.2070    0.9790   -0.0630 N   0  0  0  0  0  0  0  0  0  0  0  0
    0.0880   -1.9380    1.9050 C   0  0  0  0  0  0  0  0  0  0  0  0
    0.0930   -2.6990    0.7580 C   0  0  0  0  0  0  0  0  0  0  0  0
   -0.2920    1.3610   -1.3950 C   0  0  0  0  0  0  0  0  0  0  0  0
   -0.4050    2.8600   -1.5180 C   0  0  0  0  0  0  0  0  0  0  0  0
   -3.7050    3.7260   -3.2770 C   0  0  0  0  0  0  0  0  0  0  0  0
   -1.6630    2.7690   -3.9990 O   0  0  0  0  0  0  0  0  0  0  0  0
   -2.5660    3.8430   -0.5840 C   0  0  0  0  0  0  0  0  0  0  0  0
   -0.2840    0.6510   -2.3960 O   0  0  0  0  0  0  0  0  0  0  0  0
   -4.4130    3.2020   -4.3450 C   0  0  0  0  0  0  0  0  0  0  0  0
   -4.2660    4.6940   -2.4460 C   0  0  0  0  0  0  0  0  0  0  0  0
   -6.2930    4.6060   -3.7650 C   0  0  0  0  0  0  0  0  0  0  0  0
   -5.5680    5.1320   -2.6960 C   0  0  0  0  0  0  0  0  0  0  0  0
   -5.7150    3.6430   -4.5900 C   0  0  0  0  0  0  0  0  0  0  0  0
   -7.5290    5.0780   -3.9280 F   0  0  0  0  0  0  0  0  0  0  0  0
    0.1860   -2.4810    3.2380 C   0  0  0  0  0  0  0  0  0  0  0  0
    0.1920   -4.1230    0.6630 C   0  0  0  0  0  0  0  0  0  0  0  0
   -2.1190    5.2700   -0.2600 C   0  0  0  0  0  0  0  0  0  0  0  0
   -2.5060    2.9500    0.6560 C   0  0  0  0  0  0  0  0  0  0  0  0
   -2.8600    5.8520    0.9320 C   0  0  0  0  0  0  0  0  0  0  0  0
   -3.2370    3.5210    1.8270 C   0  0  0  0  0  0  0  0  0  0  0  0
   -2.7710    4.9370    2.1500 C   0  0  0  0  0  0  0  0  0  0  0  0
   -0.2310    1.7210    0.6210 H   0  0  0  0  0  0  0  0  0  0  0  0
   -0.0340    3.3150   -0.6000 H   0  0  0  0  0  0  0  0  0  0  0  0
    0.2050    3.1890   -2.3590 H   0  0  0  0  0  0  0  0  0  0  0  0
   -3.6130    3.8580   -0.8860 H   0  0  0  0  0  0  0  0  0  0  0  0
   -3.9620    2.4580   -4.9840 H   0  0  0  0  0  0  0  0  0  0  0  0
   -3.7010    5.1000   -1.6200 H   0  0  0  0  0  0  0  0  0  0  0  0
   -6.0150    5.8810   -2.0590 H   0  0  0  0  0  0  0  0  0  0  0  0
   -6.2750    3.2370   -5.4200 H   0  0  0  0  0  0  0  0  0  0  0  0
    0.1590   -1.6690    3.9640 H   0  0  0  0  0  0  0  0  0  0  0  0
    1.1230   -3.0280    3.3400 H   0  0  0  0  0  0  0  0  0  0  0  0
   -0.6500   -3.1570    3.4170 H   0  0  0  0  0  0  0  0  0  0  0  0
    0.1680   -4.4200   -0.3860 H   0  0  0  0  0  0  0  0  0  0  0  0
   -0.6450   -4.5810    1.1900 H   0  0  0  0  0  0  0  0  0  0  0  0
    1.1290   -4.4530    1.1120 H   0  0  0  0  0  0  0  0  0  0  0  0
   -2.3040    5.9010   -1.1290 H   0  0  0  0  0  0  0  0  0  0  0  0
   -1.0520    5.2610   -0.0380 H   0  0  0  0  0  0  0  0  0  0  0  0
   -1.4610    2.8120    0.9330 H   0  0  0  0  0  0  0  0  0  0  0  0
   -2.9470    1.9840    0.4090 H   0  0  0  0  0  0  0  0  0  0  0  0
   -3.9090    5.9860    0.6660 H   0  0  0  0  0  0  0  0  0  0  0  0
   -2.4230    6.8180    1.1830 H   0  0  0  0  0  0  0  0  0  0  0  0
   -3.0630    2.8860    2.6950 H   0  0  0  0  0  0  0  0  0  0  0  0
   -4.3030    3.5430    1.6010 H   0  0  0  0  0  0  0  0  0  0  0  0
   -3.3980    5.3430    2.9430 H   0  0  0  0  0  0  0  0  0  0  0  0
   -1.7360    4.9000    2.4890 H   0  0  0  0  0  0  0  0  0  0  0  0
  1  2  2  0  0  0  0
  1  3  1  0  0  0  0
  1  6  1  0  0  0  0
  2  7  1  0  0  0  0
  3  8  1  0  0  0  0
  4  5  1  0  0  0  0
  4 11  1  0  0  0  0
  4 12  2  0  0  0  0
  5 10  1  0  0  0  0
  5 13  1  0  0  0  0
  6  9  1  0  0  0  0
  6 28  1  0  0  0  0
  7  8  2  0  0  0  0
  7 21  1  0  0  0  0
  8 22  1  0  0  0  0
  9 10  1  0  0  0  0
  9 14  2  0  0  0  0
 10 29  1  0  0  0  0
 10 30  1  0  0  0  0
 11 15  1  0  0  0  0
 11 16  2  0  0  0  0
 13 23  1  0  0  0  0
 13 24  1  0  0  0  0
 13 31  1  0  0  0  0
 15 19  2  0  0  0  0
 15 32  1  0  0  0  0
 16 18  1  0  0  0  0
 16 33  1  0  0  0  0
 17 18  2  0  0  0  0
 17 19  1  0  0  0  0
 17 20  1  0  0  0  0
 18 34  1  0  0  0  0
 19 35  1  0  0  0  0
 21 36  1  0  0  0  0
 21 37  1  0  0  0  0
 21 38  1  0  0  0  0
 22 39  1  0  0  0  0
 22 40  1  0  0  0  0
 22 41  1  0  0  0  0
 23 25  1  0  0  0  0
 23 42  1  0  0  0  0
 23 43  1  0  0  0  0
 24 26  1  0  0  0  0
 24 44  1  0  0  0  0
 24 45  1  0  0  0  0
 25 27  1  0  0  0  0
 25 46  1  0  0  0  0
 25 47  1  0  0  0  0
 26 27  1  0  0  0  0
 26 48  1  0  0  0  0
 26 49  1  0  0  0  0
 27 50  1  0  0  0  0
 27 51  1  0  0  0  0
M  END
>  <$CLUSTER>
393

>  <INDEX>
259821

$$$$
Comgenex CGX-3187025
  MOE2020           3D

 53 54  0  0  0  0  0  0  0  0999 V2000
    5.2440   -0.7320    2.1150 S   0  0  0  0  0  0  0  0  0  0  0  0
   -1.4220    0.8780   -1.3680 S   0  0  0  0  0  0  0  0  0  0  0  0
    4.2060   -0.2010    3.3390 N   0  0  0  0  0  0  0  0  0  0  0  0
    5.7000   -2.3860    2.6220 C   0  0  0  0  0  0  0  0  0  0  0  0
    4.4090   -0.8390    0.9080 O   0  0  0  0  0  0  0  0  0  0  0  0
    6.4110    0.1070    2.0960 O   0  0  0  0  0  0  0  0  0  0  0  0
   -0.4920   -0.4040   -0.9770 O   0  0  0  0  0  0  0  0  0  0  0  0
   -0.5810    1.9930   -1.7540 O   0  0  0  0  0  0  0  0  0  0  0  0
   -2.4940    1.0170   -0.4030 O   0  0  0  0  0  0  0  0  0  0  0  0
    2.9290   -0.8610    3.5500 C   0  0  0  0  0  0  0  0  0  0  0  0
    4.8560    0.0330    4.6690 C   0  0  0  0  0  0  0  0  0  0  0  0
    6.8310   -2.5340    3.4140 C   0  0  0  0  0  0  0  0  0  0  0  0
    4.9380   -3.4640    2.2110 C   0  0  0  0  0  0  0  0  0  0  0  0
    0.3090   -0.4290    0.1390 C   0  0  0  0  0  0  0  0  0  0  0  0
    2.0090   -0.7100    2.3430 C   0  0  0  0  0  0  0  0  0  0  0  0
   -2.1120    0.1820   -2.8480 C   0  0  0  0  0  0  0  0  0  0  0  0
    6.4590   -4.9240    3.3950 C   0  0  0  0  0  0  0  0  0  0  0  0
    7.2120   -3.8210    3.8000 C   0  0  0  0  0  0  0  0  0  0  0  0
    5.3240   -4.7470    2.6010 C   0  0  0  0  0  0  0  0  0  0  0  0
    1.8870   -1.7480    1.4210 C   0  0  0  0  0  0  0  0  0  0  0  0
    1.2820    0.4660    2.1640 C   0  0  0  0  0  0  0  0  0  0  0  0
    0.4320    0.6100    1.0640 C   0  0  0  0  0  0  0  0  0  0  0  0
    1.0390   -1.6070    0.3220 C   0  0  0  0  0  0  0  0  0  0  0  0
    6.9390   -6.1420    3.8440 O   0  0  0  0  0  0  0  0  0  0  0  0
    5.9170    1.1300    4.6750 C   0  0  0  0  0  0  0  0  0  0  0  0
    6.2110   -7.3040    3.4610 C   0  0  0  0  0  0  0  0  0  0  0  0
    5.3170    2.4910    4.2860 C   0  0  0  0  0  0  0  0  0  0  0  0
    6.5890    1.2090    6.0210 C   0  0  0  0  0  0  0  0  0  0  0  0
    2.4440   -0.4210    4.4210 H   0  0  0  0  0  0  0  0  0  0  0  0
    3.1050   -1.9220    3.7290 H   0  0  0  0  0  0  0  0  0  0  0  0
    5.3280   -0.8970    4.9850 H   0  0  0  0  0  0  0  0  0  0  0  0
    4.0790    0.3080    5.3830 H   0  0  0  0  0  0  0  0  0  0  0  0
    7.4040   -1.6730    3.7250 H   0  0  0  0  0  0  0  0  0  0  0  0
    4.0600   -3.3160    1.5990 H   0  0  0  0  0  0  0  0  0  0  0  0
   -1.3270    0.0650   -3.5950 H   0  0  0  0  0  0  0  0  0  0  0  0
   -2.8860    0.8450   -3.2350 H   0  0  0  0  0  0  0  0  0  0  0  0
   -2.5470   -0.7920   -2.6230 H   0  0  0  0  0  0  0  0  0  0  0  0
    8.0900   -3.9630    4.4120 H   0  0  0  0  0  0  0  0  0  0  0  0
    4.7450   -5.6030    2.2890 H   0  0  0  0  0  0  0  0  0  0  0  0
    2.4480   -2.6610    1.5570 H   0  0  0  0  0  0  0  0  0  0  0  0
    1.3760    1.2700    2.8790 H   0  0  0  0  0  0  0  0  0  0  0  0
   -0.1290    1.5230    0.9300 H   0  0  0  0  0  0  0  0  0  0  0  0
    0.9460   -2.4130   -0.3910 H   0  0  0  0  0  0  0  0  0  0  0  0
    6.6680    0.8730    3.9280 H   0  0  0  0  0  0  0  0  0  0  0  0
    6.6930   -8.1880    3.8780 H   0  0  0  0  0  0  0  0  0  0  0  0
    6.1920   -7.3790    2.3740 H   0  0  0  0  0  0  0  0  0  0  0  0
    5.1910   -7.2340    3.8380 H   0  0  0  0  0  0  0  0  0  0  0  0
    4.5600    2.7770    5.0170 H   0  0  0  0  0  0  0  0  0  0  0  0
    4.8600    2.4180    3.2990 H   0  0  0  0  0  0  0  0  0  0  0  0
    6.1050    3.2430    4.2660 H   0  0  0  0  0  0  0  0  0  0  0  0
    5.8510    1.4660    6.7810 H   0  0  0  0  0  0  0  0  0  0  0  0
    7.3650    1.9740    5.9950 H   0  0  0  0  0  0  0  0  0  0  0  0
    7.0370    0.2450    6.2610 H   0  0  0  0  0  0  0  0  0  0  0  0
  1  3  1  0  0  0  0
  1  4  1  0  0  0  0
  1  5  2  0  0  0  0
  1  6  2  0  0  0  0
  2  7  1  0  0  0  0
  2  8  2  0  0  0  0
  2  9  2  0  0  0  0
  2 16  1  0  0  0  0
  3 10  1  0  0  0  0
  3 11  1  0  0  0  0
  4 12  2  0  0  0  0
  4 13  1  0  0  0  0
  7 14  1  0  0  0  0
 10 15  1  0  0  0  0
 10 29  1  0  0  0  0
 10 30  1  0  0  0  0
 11 25  1  0  0  0  0
 11 31  1  0  0  0  0
 11 32  1  0  0  0  0
 12 18  1  0  0  0  0
 12 33  1  0  0  0  0
 13 19  2  0  0  0  0
 13 34  1  0  0  0  0
 14 22  2  0  0  0  0
 14 23  1  0  0  0  0
 15 20  1  0  0  0  0
 15 21  2  0  0  0  0
 16 35  1  0  0  0  0
 16 36  1  0  0  0  0
 16 37  1  0  0  0  0
 17 18  2  0  0  0  0
 17 19  1  0  0  0  0
 17 24  1  0  0  0  0
 18 38  1  0  0  0  0
 19 39  1  0  0  0  0
 20 23  2  0  0  0  0
 20 40  1  0  0  0  0
 21 22  1  0  0  0  0
 21 41  1  0  0  0  0
 22 42  1  0  0  0  0
 23 43  1  0  0  0  0
 24 26  1  0  0  0  0
 25 27  1  0  0  0  0
 25 28  1  0  0  0  0
 25 44  1  0  0  0  0
 26 45  1  0  0  0  0
 26 46  1  0  0  0  0
 26 47  1  0  0  0  0
 27 48  1  0  0  0  0
 27 49  1  0  0  0  0
 27 50  1  0  0  0  0
 28 51  1  0  0  0  0
 28 52  1  0  0  0  0
 28 53  1  0  0  0  0
M  END
>  <$CLUSTER>
394

>  <INDEX>
262767

$$$$
Comgenex CGX-3215469
  MOE2020           3D

 57 58  0  0  1  0  0  0  0  0999 V2000
   -4.2720   -1.3980    1.2390 C   0  0  0  0  0  0  0  0  0  0  0  0
    0.3100   -0.7070    1.1100 C   0  0  0  0  0  0  0  0  0  0  0  0
   -4.6630   -2.2790    2.1350 N   0  0  0  0  0  0  0  0  0  0  0  0
   -0.0680   -0.2990   -0.1780 N   0  0  0  0  0  0  0  0  0  0  0  0
   -3.0770   -1.4340    0.5770 N   0  0  0  0  0  0  0  0  0  0  0  0
   -5.9150   -1.9390    2.6060 C   0  0  0  0  0  0  0  0  0  0  0  0
   -5.3780   -0.1310    0.9230 S   0  0  0  0  0  0  0  0  0  0  0  0
   -2.5290   -0.6330   -0.3740 C   0  0  0  0  0  0  0  0  0  0  0  0
   -7.2980   -3.9900    3.0170 C   0  0  0  0  0  0  0  0  0  0  0  0
   -6.5500   -2.8210    3.6400 C   0  0  0  0  0  0  0  0  0  0  0  0
   -6.4660   -0.7990    2.0630 C   0  0  0  0  0  0  0  0  0  0  0  0
   -1.1420   -1.0550   -0.8380 C   0  0  0  0  0  0  0  0  0  0  0  0
    1.4480    0.0380    1.7630 C   0  0  0  0  0  0  0  0  0  0  0  0
   -7.8830   -4.8070    3.9650 N   0  0  0  0  0  0  0  0  0  0  0  0
   -0.2330   -1.6300    1.7240 O   0  0  0  0  0  0  0  0  0  0  0  0
   -3.0980    0.3800   -0.7830 O   0  0  0  0  0  0  0  0  0  0  0  0
   -7.3770   -4.1910    1.8120 O   0  0  0  0  0  0  0  0  0  0  0  0
    0.5740    0.8190   -0.9180 C   0  0  0  0  0  0  0  0  0  0  0  0
    2.1850   -0.6220    2.7280 C   0  0  0  0  0  0  0  0  0  0  0  0
    1.7390    1.3530    1.4040 C   0  0  0  0  0  0  0  0  0  0  0  0
    3.5540    1.3500    3.0050 C   0  0  0  0  0  0  0  0  0  0  0  0
    3.2460    0.0370    3.3530 C   0  0  0  0  0  0  0  0  0  0  0  0
    2.8010    2.0080    2.0340 C   0  0  0  0  0  0  0  0  0  0  0  0
    4.5840    1.9040    3.6460 F   0  0  0  0  0  0  0  0  0  0  0  0
   -8.6640   -5.9930    3.6540 C   0  0  3  0  0  0  0  0  0  0  0  0
   -0.4280    1.7940   -1.5390 C   0  0  0  0  0  0  0  0  0  0  0  0
    1.5430    0.2790   -1.9710 C   0  0  0  0  0  0  0  0  0  0  0  0
   -8.5320   -7.0350    4.7600 C   0  0  0  0  0  0  0  0  0  0  0  0
  -10.1260   -5.6190    3.4280 C   0  0  0  0  0  0  0  0  0  0  0  0
   -9.2020   -8.3630    4.4880 C   0  0  0  0  0  0  0  0  0  0  0  0
   -2.4860   -2.2070    0.8470 H   0  0  0  0  0  0  0  0  0  0  0  0
   -7.2520   -2.2270    4.2250 H   0  0  0  0  0  0  0  0  0  0  0  0
   -5.7710   -3.2120    4.2950 H   0  0  0  0  0  0  0  0  0  0  0  0
   -7.4330   -0.3910    2.3170 H   0  0  0  0  0  0  0  0  0  0  0  0
   -1.0080   -2.1140   -0.6190 H   0  0  0  0  0  0  0  0  0  0  0  0
   -1.0710   -0.8950   -1.9140 H   0  0  0  0  0  0  0  0  0  0  0  0
   -7.7600   -4.5640    4.9380 H   0  0  0  0  0  0  0  0  0  0  0  0
    1.1330    1.3960   -0.1820 H   0  0  0  0  0  0  0  0  0  0  0  0
    1.9420   -1.6400    2.9970 H   0  0  0  0  0  0  0  0  0  0  0  0
    1.1530    1.8580    0.6510 H   0  0  0  0  0  0  0  0  0  0  0  0
    3.8280   -0.4720    4.1070 H   0  0  0  0  0  0  0  0  0  0  0  0
    3.0390    3.0270    1.7680 H   0  0  0  0  0  0  0  0  0  0  0  0
   -8.2760   -6.4320    2.7350 H   0  0  0  0  0  0  0  0  0  0  0  0
   -1.0230    1.2740   -2.2900 H   0  0  0  0  0  0  0  0  0  0  0  0
    0.1100    2.6180   -2.0080 H   0  0  0  0  0  0  0  0  0  0  0  0
   -1.0840    2.1850   -0.7610 H   0  0  0  0  0  0  0  0  0  0  0  0
    0.9900   -0.3000   -2.7110 H   0  0  0  0  0  0  0  0  0  0  0  0
    2.2840   -0.3600   -1.4900 H   0  0  0  0  0  0  0  0  0  0  0  0
    2.0460    1.1120   -2.4630 H   0  0  0  0  0  0  0  0  0  0  0  0
   -8.9690   -6.6180    5.6680 H   0  0  0  0  0  0  0  0  0  0  0  0
   -7.4700   -7.2210    4.9200 H   0  0  0  0  0  0  0  0  0  0  0  0
  -10.5330   -5.1780    4.3380 H   0  0  0  0  0  0  0  0  0  0  0  0
  -10.6940   -6.5130    3.1720 H   0  0  0  0  0  0  0  0  0  0  0  0
  -10.1950   -4.8990    2.6120 H   0  0  0  0  0  0  0  0  0  0  0  0
  -10.2680   -8.2050    4.3230 H   0  0  0  0  0  0  0  0  0  0  0  0
   -9.0600   -9.0230    5.3430 H   0  0  0  0  0  0  0  0  0  0  0  0
   -8.7610   -8.8180    3.6010 H   0  0  0  0  0  0  0  0  0  0  0  0
  1  3  2  0  0  0  0
  1  5  1  0  0  0  0
  1  7  1  0  0  0  0
  2  4  1  0  0  0  0
  2 13  1  0  0  0  0
  2 15  2  0  0  0  0
  3  6  1  0  0  0  0
  4 12  1  0  0  0  0
  4 18  1  0  0  0  0
  5  8  1  0  0  0  0
  5 31  1  0  0  0  0
  6 10  1  0  0  0  0
  6 11  2  0  0  0  0
  7 11  1  0  0  0  0
  8 12  1  0  0  0  0
  8 16  2  0  0  0  0
  9 10  1  0  0  0  0
  9 14  1  0  0  0  0
  9 17  2  0  0  0  0
 10 32  1  0  0  0  0
 10 33  1  0  0  0  0
 11 34  1  0  0  0  0
 12 35  1  0  0  0  0
 12 36  1  0  0  0  0
 13 19  2  0  0  0  0
 13 20  1  0  0  0  0
 14 25  1  0  0  0  0
 14 37  1  0  0  0  0
 18 26  1  0  0  0  0
 18 27  1  0  0  0  0
 18 38  1  0  0  0  0
 19 22  1  0  0  0  0
 19 39  1  0  0  0  0
 20 23  2  0  0  0  0
 20 40  1  0  0  0  0
 21 22  2  0  0  0  0
 21 23  1  0  0  0  0
 21 24  1  0  0  0  0
 22 41  1  0  0  0  0
 23 42  1  0  0  0  0
 25 28  1  0  0  0  0
 25 29  1  0  0  0  0
 25 43  1  0  0  0  0
 26 44  1  0  0  0  0
 26 45  1  0  0  0  0
 26 46  1  0  0  0  0
 27 47  1  0  0  0  0
 27 48  1  0  0  0  0
 27 49  1  0  0  0  0
 28 30  1  0  0  0  0
 28 50  1  0  0  0  0
 28 51  1  0  0  0  0
 29 52  1  0  0  0  0
 29 53  1  0  0  0  0
 29 54  1  0  0  0  0
 30 55  1  0  0  0  0
 30 56  1  0  0  0  0
 30 57  1  0  0  0  0
M  END
>  <$CLUSTER>
395

>  <INDEX>
263019

$$$$
Comgenex CGX-3230780
  MOE2020           3D

 33 35  0  0  1  0  0  0  0  0999 V2000
    1.4280    0.5000   -0.6370 N   0  0  0  0  0  0  0  0  0  0  0  0
    0.3690   -0.3610   -1.1750 C   0  0  3  0  0  0  0  0  0  0  0  0
    1.2280    1.8700   -0.4990 C   0  0  0  0  0  0  0  0  0  0  0  0
   -0.8410   -0.4920   -0.2720 C   0  0  0  0  0  0  0  0  0  0  0  0
   -1.8580   -0.8360    1.9120 C   0  0  0  0  0  0  0  0  0  0  0  0
    1.1280   -1.9890   -1.4990 S   0  0  0  0  0  0  0  0  0  0  0  0
   -0.7220   -0.7080    1.1100 C   0  0  0  0  0  0  0  0  0  0  0  0
   -3.1270   -0.7540    1.3450 C   0  0  0  0  0  0  0  0  0  0  0  0
   -1.6350   -1.0740    3.2620 O   0  0  0  0  0  0  0  0  0  0  0  0
   -2.1280   -0.4190   -0.8300 C   0  0  0  0  0  0  0  0  0  0  0  0
    0.2050    2.4550   -0.8610 O   0  0  0  0  0  0  0  0  0  0  0  0
   -4.2980   -0.8410    2.0780 O   0  0  0  0  0  0  0  0  0  0  0  0
   -3.2630   -0.5470   -0.0260 C   0  0  0  0  0  0  0  0  0  0  0  0
    2.6540   -0.2200   -0.2910 C   0  0  0  0  0  0  0  0  0  0  0  0
    2.8110   -1.3900   -1.2460 C   0  0  0  0  0  0  0  0  0  0  0  0
    2.3540    2.6470    0.1340 C   0  0  0  0  0  0  0  0  0  0  0  0
   -2.8360   -1.5380    3.9050 C   0  0  0  0  0  0  0  0  0  0  0  0
   -4.0360   -0.6980    3.4860 C   0  0  0  0  0  0  0  0  0  0  0  0
   -0.0240    0.0930   -2.0850 H   0  0  0  0  0  0  0  0  0  0  0  0
    0.2580   -0.7760    1.5580 H   0  0  0  0  0  0  0  0  0  0  0  0
   -2.2410   -0.2620   -1.8930 H   0  0  0  0  0  0  0  0  0  0  0  0
   -4.2470   -0.4850   -0.4670 H   0  0  0  0  0  0  0  0  0  0  0  0
    2.5880   -0.5870    0.7330 H   0  0  0  0  0  0  0  0  0  0  0  0
    3.5110    0.4470   -0.3830 H   0  0  0  0  0  0  0  0  0  0  0  0
    3.2500   -1.0630   -2.1880 H   0  0  0  0  0  0  0  0  0  0  0  0
    3.4350   -2.1670   -0.8050 H   0  0  0  0  0  0  0  0  0  0  0  0
    3.1680    1.9670    0.3860 H   0  0  0  0  0  0  0  0  0  0  0  0
    1.9940    3.1350    1.0400 H   0  0  0  0  0  0  0  0  0  0  0  0
    2.7140    3.4000   -0.5660 H   0  0  0  0  0  0  0  0  0  0  0  0
   -2.7120   -1.4690    4.9860 H   0  0  0  0  0  0  0  0  0  0  0  0
   -3.0120   -2.5770    3.6250 H   0  0  0  0  0  0  0  0  0  0  0  0
   -4.9120   -1.0230    4.0470 H   0  0  0  0  0  0  0  0  0  0  0  0
   -3.8320    0.3500    3.7060 H   0  0  0  0  0  0  0  0  0  0  0  0
  1  2  1  0  0  0  0
  1  3  1  0  0  0  0
  1 14  1  0  0  0  0
  2  4  1  0  0  0  0
  2  6  1  0  0  0  0
  2 19  1  0  0  0  0
  3 11  2  0  0  0  0
  3 16  1  0  0  0  0
  4  7  2  0  0  0  0
  4 10  1  0  0  0  0
  5  7  1  0  0  0  0
  5  8  2  0  0  0  0
  5  9  1  0  0  0  0
  6 15  1  0  0  0  0
  7 20  1  0  0  0  0
  8 12  1  0  0  0  0
  8 13  1  0  0  0  0
  9 17  1  0  0  0  0
 10 13  2  0  0  0  0
 10 21  1  0  0  0  0
 12 18  1  0  0  0  0
 13 22  1  0  0  0  0
 14 15  1  0  0  0  0
 14 23  1  0  0  0  0
 14 24  1  0  0  0  0
 15 25  1  0  0  0  0
 15 26  1  0  0  0  0
 16 27  1  0  0  0  0
 16 28  1  0  0  0  0
 16 29  1  0  0  0  0
 17 18  1  0  0  0  0
 17 30  1  0  0  0  0
 17 31  1  0  0  0  0
 18 32  1  0  0  0  0
 18 33  1  0  0  0  0
M  END
>  <$CLUSTER>
396

>  <INDEX>
263978

$$$$
Comgenex CGX-3231441
  MOE2020           3D

 53 56  0  0  1  0  0  0  0  0999 V2000
   -0.5390   -0.6710    1.5830 N   0  0  0  0  0  0  0  0  0  0  0  0
   -0.5320   -1.7450    0.6930 C   0  0  0  0  0  0  0  0  0  0  0  0
   -3.4160   -0.4490   -3.0560 N   0  3  0  0  0  0  0  0  0  0  0  0
   -0.6440    0.7560    1.2330 C   0  0  3  0  0  0  0  0  0  0  0  0
   -2.1150   -0.8520   -2.5920 C   0  0  0  0  0  0  0  0  0  0  0  0
   -0.7070   -1.4570   -0.7370 C   0  0  0  0  0  0  0  0  0  0  0  0
   -1.9640   -1.1070   -1.2290 C   0  0  0  0  0  0  0  0  0  0  0  0
   -0.8900    1.6580    2.8060 S   0  0  0  0  0  0  0  0  0  0  0  0
    0.5440    1.3030    0.4730 C   0  0  0  0  0  0  0  0  0  0  0  0
   -3.5080    0.6170   -3.6850 O   0  5  0  0  0  0  0  0  0  0  0  0
   -4.3700   -1.1960   -2.7820 O   0  0  0  0  0  0  0  0  0  0  0  0
   -0.3770   -2.9230    1.0040 O   0  0  0  0  0  0  0  0  0  0  0  0
   -1.0200   -0.9610   -3.4510 C   0  0  0  0  0  0  0  0  0  0  0  0
    0.3890   -1.5920   -1.5910 C   0  0  0  0  0  0  0  0  0  0  0  0
    0.2300   -1.3340   -2.9510 C   0  0  0  0  0  0  0  0  0  0  0  0
   -0.4240   -0.9150    3.0180 C   0  0  0  0  0  0  0  0  0  0  0  0
    0.3290    2.1400   -0.6340 C   0  0  0  0  0  0  0  0  0  0  0  0
    1.8670    1.0120    0.8450 C   0  0  0  0  0  0  0  0  0  0  0  0
    3.8480    2.7970   -1.6120 O   0  0  0  0  0  0  0  0  0  0  0  0
    2.7100    2.3480   -0.9840 C   0  0  0  0  0  0  0  0  0  0  0  0
   -1.2040    0.1560    3.7560 C   0  0  0  0  0  0  0  0  0  0  0  0
    3.6740    3.6440   -2.7480 C   0  0  0  0  0  0  0  0  0  0  0  0
    1.4050    2.6550   -1.3600 C   0  0  0  0  0  0  0  0  0  0  0  0
    2.9410    1.5290    0.1180 C   0  0  0  0  0  0  0  0  0  0  0  0
    5.0500    4.0090   -3.2730 C   0  0  0  0  0  0  0  0  0  0  0  0
   -1.1420   -0.7080   -4.9640 C   0  0  0  0  0  0  0  0  0  0  0  0
    5.7100    5.1430   -2.7900 C   0  0  0  0  0  0  0  0  0  0  0  0
    5.6750    3.2040   -4.2300 C   0  0  0  0  0  0  0  0  0  0  0  0
    6.9450    3.5360   -4.7060 C   0  0  0  0  0  0  0  0  0  0  0  0
    6.9800    5.4730   -3.2660 C   0  0  0  0  0  0  0  0  0  0  0  0
    7.5960    4.6710   -4.2260 C   0  0  0  0  0  0  0  0  0  0  0  0
   -1.4790    0.8880    0.5450 H   0  0  0  0  0  0  0  0  0  0  0  0
   -2.8110   -1.0340   -0.5620 H   0  0  0  0  0  0  0  0  0  0  0  0
    1.3500   -1.8930   -1.2020 H   0  0  0  0  0  0  0  0  0  0  0  0
    1.0740   -1.4220   -3.6190 H   0  0  0  0  0  0  0  0  0  0  0  0
    0.6240   -0.8750    3.3140 H   0  0  0  0  0  0  0  0  0  0  0  0
   -0.8320   -1.8970    3.2570 H   0  0  0  0  0  0  0  0  0  0  0  0
   -0.6800    2.3880   -0.9270 H   0  0  0  0  0  0  0  0  0  0  0  0
    2.0550    0.3820    1.7020 H   0  0  0  0  0  0  0  0  0  0  0  0
   -2.2680   -0.0790    3.7680 H   0  0  0  0  0  0  0  0  0  0  0  0
   -0.8430    0.2620    4.7790 H   0  0  0  0  0  0  0  0  0  0  0  0
    3.1370    4.5470   -2.4580 H   0  0  0  0  0  0  0  0  0  0  0  0
    3.1110    3.1180   -3.5190 H   0  0  0  0  0  0  0  0  0  0  0  0
    1.2250    3.2920   -2.2140 H   0  0  0  0  0  0  0  0  0  0  0  0
    3.9530    1.2930    0.4110 H   0  0  0  0  0  0  0  0  0  0  0  0
   -2.1680   -0.4270   -5.2040 H   0  0  0  0  0  0  0  0  0  0  0  0
   -0.8770   -1.6160   -5.5070 H   0  0  0  0  0  0  0  0  0  0  0  0
   -0.4670    0.0980   -5.2530 H   0  0  0  0  0  0  0  0  0  0  0  0
    5.2360    5.7660   -2.0460 H   0  0  0  0  0  0  0  0  0  0  0  0
    5.1740    2.3230   -4.6020 H   0  0  0  0  0  0  0  0  0  0  0  0
    7.4230    2.9130   -5.4470 H   0  0  0  0  0  0  0  0  0  0  0  0
    7.4860    6.3500   -2.8900 H   0  0  0  0  0  0  0  0  0  0  0  0
    8.5770    4.9290   -4.5970 H   0  0  0  0  0  0  0  0  0  0  0  0
  1  2  1  0  0  0  0
  1  4  1  0  0  0  0
  1 16  1  0  0  0  0
  2  6  1  0  0  0  0
  2 12  2  0  0  0  0
  3  5  1  0  0  0  0
  3 10  1  0  0  0  0
  3 11  2  0  0  0  0
  4  8  1  0  0  0  0
  4  9  1  0  0  0  0
  4 32  1  0  0  0  0
  5  7  2  0  0  0  0
  5 13  1  0  0  0  0
  6  7  1  0  0  0  0
  6 14  2  0  0  0  0
  7 33  1  0  0  0  0
  8 21  1  0  0  0  0
  9 17  2  0  0  0  0
  9 18  1  0  0  0  0
 13 15  2  0  0  0  0
 13 26  1  0  0  0  0
 14 15  1  0  0  0  0
 14 34  1  0  0  0  0
 15 35  1  0  0  0  0
 16 21  1  0  0  0  0
 16 36  1  0  0  0  0
 16 37  1  0  0  0  0
 17 23  1  0  0  0  0
 17 38  1  0  0  0  0
 18 24  2  0  0  0  0
 18 39  1  0  0  0  0
 19 20  1  0  0  0  0
 19 22  1  0  0  0  0
 20 23  2  0  0  0  0
 20 24  1  0  0  0  0
 21 40  1  0  0  0  0
 21 41  1  0  0  0  0
 22 25  1  0  0  0  0
 22 42  1  0  0  0  0
 22 43  1  0  0  0  0
 23 44  1  0  0  0  0
 24 45  1  0  0  0  0
 25 27  1  0  0  0  0
 25 28  2  0  0  0  0
 26 46  1  0  0  0  0
 26 47  1  0  0  0  0
 26 48  1  0  0  0  0
 27 30  2  0  0  0  0
 27 49  1  0  0  0  0
 28 29  1  0  0  0  0
 28 50  1  0  0  0  0
 29 31  2  0  0  0  0
 29 51  1  0  0  0  0
 30 31  1  0  0  0  0
 30 52  1  0  0  0  0
 31 53  1  0  0  0  0
M  CHG  1   3   1
M  CHG  1  10  -1
M  END
>  <$CLUSTER>
397

>  <INDEX>
264113

$$$$
Comgenex CGX-3232108
  MOE2020           3D

 34 36  0  0  1  0  0  0  0  0999 V2000
   -0.6560   -1.3980   -1.0790 N   0  0  0  0  0  0  0  0  0  0  0  0
    0.4230   -0.4550   -1.4230 C   0  0  3  0  0  0  0  0  0  0  0  0
    1.3780   -0.1580   -0.2900 C   0  0  0  0  0  0  0  0  0  0  0  0
   -1.6940   -1.1760   -0.1740 C   0  0  0  0  0  0  0  0  0  0  0  0
    1.7910    1.1600   -0.0480 C   0  0  0  0  0  0  0  0  0  0  0  0
    1.3060   -1.1790   -2.8530 S   0  0  0  0  0  0  0  0  0  0  0  0
    1.8880   -1.1680    0.5410 C   0  0  0  0  0  0  0  0  0  0  0  0
    2.6660    1.4740    0.9900 C   0  0  0  0  0  0  0  0  0  0  0  0
   -1.7790    0.1430    0.4680 C   0  0  0  0  0  0  0  0  0  0  0  0
   -2.5450   -2.0010    0.1450 O   0  0  0  0  0  0  0  0  0  0  0  0
   -0.5640   -2.6740   -1.7820 C   0  0  0  0  0  0  0  0  0  0  0  0
   -2.2260    1.2460   -0.2600 C   0  0  0  0  0  0  0  0  0  0  0  0
   -1.4560    0.2560    1.8210 C   0  0  0  0  0  0  0  0  0  0  0  0
    3.1520    0.4600    1.8090 C   0  0  0  0  0  0  0  0  0  0  0  0
    1.3360    2.1560   -0.8240 F   0  0  0  0  0  0  0  0  0  0  0  0
    2.7660   -0.8600    1.5840 C   0  0  0  0  0  0  0  0  0  0  0  0
   -1.9690    2.6150    1.7160 C   0  0  0  0  0  0  0  0  0  0  0  0
    0.0410   -2.4310   -3.1510 C   0  0  0  0  0  0  0  0  0  0  0  0
   -1.5450    1.5010    2.4410 C   0  0  0  0  0  0  0  0  0  0  0  0
   -2.3130    2.4870    0.3690 C   0  0  0  0  0  0  0  0  0  0  0  0
    3.9810    0.8340    2.7850 F   0  0  0  0  0  0  0  0  0  0  0  0
   -2.0620    4.1300    2.4890 Cl  0  0  0  0  0  0  0  0  0  0  0  0
   -0.0190    0.5140   -1.6560 H   0  0  0  0  0  0  0  0  0  0  0  0
    1.5990   -2.1950    0.3720 H   0  0  0  0  0  0  0  0  0  0  0  0
    2.9650    2.4980    1.1580 H   0  0  0  0  0  0  0  0  0  0  0  0
   -1.5590   -3.1050   -1.8920 H   0  0  0  0  0  0  0  0  0  0  0  0
    0.0690   -3.3590   -1.2180 H   0  0  0  0  0  0  0  0  0  0  0  0
   -2.5010    1.1400   -1.2990 H   0  0  0  0  0  0  0  0  0  0  0  0
   -1.1410   -0.6120    2.3810 H   0  0  0  0  0  0  0  0  0  0  0  0
    3.1460   -1.6480    2.2180 H   0  0  0  0  0  0  0  0  0  0  0  0
    0.4850   -3.3450   -3.5460 H   0  0  0  0  0  0  0  0  0  0  0  0
   -0.7120   -2.0630   -3.8480 H   0  0  0  0  0  0  0  0  0  0  0  0
   -1.2850    1.6040    3.4840 H   0  0  0  0  0  0  0  0  0  0  0  0
   -2.6470    3.3510   -0.1870 H   0  0  0  0  0  0  0  0  0  0  0  0
  1  2  1  0  0  0  0
  1  4  1  0  0  0  0
  1 11  1  0  0  0  0
  2  3  1  0  0  0  0
  2  6  1  0  0  0  0
  2 23  1  0  0  0  0
  3  5  2  0  0  0  0
  3  7  1  0  0  0  0
  4  9  1  0  0  0  0
  4 10  2  0  0  0  0
  5  8  1  0  0  0  0
  5 15  1  0  0  0  0
  6 18  1  0  0  0  0
  7 16  2  0  0  0  0
  7 24  1  0  0  0  0
  8 14  2  0  0  0  0
  8 25  1  0  0  0  0
  9 12  1  0  0  0  0
  9 13  2  0  0  0  0
 11 18  1  0  0  0  0
 11 26  1  0  0  0  0
 11 27  1  0  0  0  0
 12 20  2  0  0  0  0
 12 28  1  0  0  0  0
 13 19  1  0  0  0  0
 13 29  1  0  0  0  0
 14 16  1  0  0  0  0
 14 21  1  0  0  0  0
 16 30  1  0  0  0  0
 17 19  2  0  0  0  0
 17 20  1  0  0  0  0
 17 22  1  0  0  0  0
 18 31  1  0  0  0  0
 18 32  1  0  0  0  0
 19 33  1  0  0  0  0
 20 34  1  0  0  0  0
M  END
>  <$CLUSTER>
398

>  <INDEX>
264380

$$$$
Comgenex CGX-3233812
  MOE2020           3D

 45 48  0  0  1  0  0  0  0  0999 V2000
    1.3850   -0.6600    0.4610 N   0  0  0  0  0  0  0  0  0  0  0  0
    2.0870    0.4320    0.9710 C   0  0  0  0  0  0  0  0  0  0  0  0
   -0.0290   -0.9820    0.7160 C   0  0  3  0  0  0  0  0  0  0  0  0
   -1.0180   -0.0240    0.0830 C   0  0  0  0  0  0  0  0  0  0  0  0
    1.3800    1.2520    1.8230 N   0  0  0  0  0  0  0  0  0  0  0  0
   -1.7720    1.3770   -1.7590 C   0  0  0  0  0  0  0  0  0  0  0  0
   -0.2920   -2.6850    0.1000 S   0  0  0  0  0  0  0  0  0  0  0  0
   -0.8310    0.5070   -1.2030 C   0  0  0  0  0  0  0  0  0  0  0  0
    1.0020    4.1700    4.0410 C   0  0  0  0  0  0  0  0  0  0  0  0
    0.7200    3.0070    3.3210 C   0  0  0  0  0  0  0  0  0  0  0  0
    3.2650    0.6740    0.6980 O   0  0  0  0  0  0  0  0  0  0  0  0
   -2.9150    1.7220   -1.0430 C   0  0  0  0  0  0  0  0  0  0  0  0
    1.7010    2.4030    2.5200 C   0  0  0  0  0  0  0  0  0  0  0  0
   -1.4760    1.8800   -3.0200 O   0  0  0  0  0  0  0  0  0  0  0  0
    2.2680    4.7430    3.9690 C   0  0  0  0  0  0  0  0  0  0  0  0
   -2.1810    0.3270    0.7880 C   0  0  0  0  0  0  0  0  0  0  0  0
   -3.9080    2.5460   -1.5420 O   0  0  0  0  0  0  0  0  0  0  0  0
   -3.1210    1.1960    0.2300 C   0  0  0  0  0  0  0  0  0  0  0  0
    2.0530   -1.6230   -0.4120 C   0  0  0  0  0  0  0  0  0  0  0  0
    3.2500    4.1520    3.1770 C   0  0  0  0  0  0  0  0  0  0  0  0
   -0.2150    4.8730    5.0020 Cl  0  0  0  0  0  0  0  0  0  0  0  0
    2.9700    2.9870    2.4540 C   0  0  0  0  0  0  0  0  0  0  0  0
    1.4690   -2.9970   -0.1490 C   0  0  0  0  0  0  0  0  0  0  0  0
   -2.3120    3.0100   -3.3300 C   0  0  0  0  0  0  0  0  0  0  0  0
   -3.7630    2.7290   -2.9620 C   0  0  0  0  0  0  0  0  0  0  0  0
    2.5760    5.9860    4.7360 C   0  0  0  0  0  0  0  0  0  0  0  0
   -0.2180   -0.8900    1.7860 H   0  0  0  0  0  0  0  0  0  0  0  0
    0.4280    0.9490    1.9690 H   0  0  0  0  0  0  0  0  0  0  0  0
    0.0500    0.2400   -1.7680 H   0  0  0  0  0  0  0  0  0  0  0  0
   -0.2650    2.5670    3.3810 H   0  0  0  0  0  0  0  0  0  0  0  0
   -2.3500   -0.0800    1.7740 H   0  0  0  0  0  0  0  0  0  0  0  0
   -4.0080    1.4600    0.7860 H   0  0  0  0  0  0  0  0  0  0  0  0
    3.1220   -1.6310   -0.2000 H   0  0  0  0  0  0  0  0  0  0  0  0
    1.8910   -1.3480   -1.4540 H   0  0  0  0  0  0  0  0  0  0  0  0
    4.2330    4.5960    3.1210 H   0  0  0  0  0  0  0  0  0  0  0  0
    3.7380    2.5370    1.8420 H   0  0  0  0  0  0  0  0  0  0  0  0
    1.6290   -3.6550   -1.0030 H   0  0  0  0  0  0  0  0  0  0  0  0
    1.9130   -3.4420    0.7410 H   0  0  0  0  0  0  0  0  0  0  0  0
   -2.2490    3.2190   -4.3980 H   0  0  0  0  0  0  0  0  0  0  0  0
   -1.9630    3.8770   -2.7690 H   0  0  0  0  0  0  0  0  0  0  0  0
   -4.3800    3.5700   -3.2780 H   0  0  0  0  0  0  0  0  0  0  0  0
   -4.0920    1.8240   -3.4740 H   0  0  0  0  0  0  0  0  0  0  0  0
    1.6920    6.2980    5.2920 H   0  0  0  0  0  0  0  0  0  0  0  0
    2.8680    6.7770    4.0450 H   0  0  0  0  0  0  0  0  0  0  0  0
    3.3930    5.7910    5.4310 H   0  0  0  0  0  0  0  0  0  0  0  0
  1  2  1  0  0  0  0
  1  3  1  0  0  0  0
  1 19  1  0  0  0  0
  2  5  1  0  0  0  0
  2 11  2  0  0  0  0
  3  4  1  0  0  0  0
  3  7  1  0  0  0  0
  3 27  1  0  0  0  0
  4  8  2  0  0  0  0
  4 16  1  0  0  0  0
  5 13  1  0  0  0  0
  5 28  1  0  0  0  0
  6  8  1  0  0  0  0
  6 12  2  0  0  0  0
  6 14  1  0  0  0  0
  7 23  1  0  0  0  0
  8 29  1  0  0  0  0
  9 10  2  0  0  0  0
  9 15  1  0  0  0  0
  9 21  1  0  0  0  0
 10 13  1  0  0  0  0
 10 30  1  0  0  0  0
 12 17  1  0  0  0  0
 12 18  1  0  0  0  0
 13 22  2  0  0  0  0
 14 24  1  0  0  0  0
 15 20  2  0  0  0  0
 15 26  1  0  0  0  0
 16 18  2  0  0  0  0
 16 31  1  0  0  0  0
 17 25  1  0  0  0  0
 18 32  1  0  0  0  0
 19 23  1  0  0  0  0
 19 33  1  0  0  0  0
 19 34  1  0  0  0  0
 20 22  1  0  0  0  0
 20 35  1  0  0  0  0
 22 36  1  0  0  0  0
 23 37  1  0  0  0  0
 23 38  1  0  0  0  0
 24 25  1  0  0  0  0
 24 39  1  0  0  0  0
 24 40  1  0  0  0  0
 25 41  1  0  0  0  0
 25 42  1  0  0  0  0
 26 43  1  0  0  0  0
 26 44  1  0  0  0  0
 26 45  1  0  0  0  0
M  END
>  <$CLUSTER>
399

>  <INDEX>
264937

$$$$
Comgenex CGX-3244824
  MOE2020           3D

 59 61  0  0  0  0  0  0  0  0999 V2000
   -1.6920    0.0450   -0.4410 C   0  0  0  0  0  0  0  0  0  0  0  0
   -0.2580    0.0160   -0.0630 C   0  0  0  0  0  0  0  0  0  0  0  0
    0.2730    1.1090    0.5650 N   0  0  0  0  0  0  0  0  0  0  0  0
   -2.3700    1.1790   -0.1240 N   0  0  0  0  0  0  0  0  0  0  0  0
   -1.4130    3.5880    2.6970 C   0  0  0  0  0  0  0  0  0  0  0  0
    1.8260   -1.2130   -0.0390 N   0  0  0  0  0  0  0  0  0  0  0  0
   -1.9870    2.3610    2.0410 C   0  0  0  0  0  0  0  0  0  0  0  0
    0.5000   -1.1140   -0.3570 C   0  0  0  0  0  0  0  0  0  0  0  0
   -1.5850    3.5750    4.0730 N   0  0  0  0  0  0  0  0  0  0  0  0
   -2.2250   -0.9060   -1.0070 O   0  0  0  0  0  0  0  0  0  0  0  0
   -1.7940    2.3870    0.5330 C   0  0  0  0  0  0  0  0  0  0  0  0
   -0.8550    4.5060    2.1060 O   0  0  0  0  0  0  0  0  0  0  0  0
   -3.8220    1.3000   -0.4440 C   0  0  0  0  0  0  0  0  0  0  0  0
    1.5930    1.0090    0.8800 C   0  0  0  0  0  0  0  0  0  0  0  0
    2.3520   -0.1230    0.5860 C   0  0  0  0  0  0  0  0  0  0  0  0
   -4.0460    1.8920   -1.8260 C   0  0  0  0  0  0  0  0  0  0  0  0
   -1.1260    4.6270    4.9710 C   0  0  0  0  0  0  0  0  0  0  0  0
   -5.5140    2.0240   -2.1420 C   0  0  0  0  0  0  0  0  0  0  0  0
    3.8360   -0.1760    0.9650 C   0  0  0  0  0  0  0  0  0  0  0  0
   -6.2160    3.1910   -1.8070 C   0  0  0  0  0  0  0  0  0  0  0  0
   -6.2090    0.9730   -2.7590 C   0  0  0  0  0  0  0  0  0  0  0  0
   -2.0400    4.7410    6.1860 C   0  0  0  0  0  0  0  0  0  0  0  0
    0.3180    4.3680    5.3940 C   0  0  0  0  0  0  0  0  0  0  0  0
   -7.5780    3.3060   -2.0880 C   0  0  0  0  0  0  0  0  0  0  0  0
   -7.5710    1.0900   -3.0400 C   0  0  0  0  0  0  0  0  0  0  0  0
   -1.5500    5.7880    7.1770 C   0  0  0  0  0  0  0  0  0  0  0  0
    0.8190    5.4170    6.3850 C   0  0  0  0  0  0  0  0  0  0  0  0
   -8.2540    2.2560   -2.7060 C   0  0  0  0  0  0  0  0  0  0  0  0
   -0.1050    5.5320    7.5930 C   0  0  0  0  0  0  0  0  0  0  0  0
   -3.0540    2.3100    2.2600 H   0  0  0  0  0  0  0  0  0  0  0  0
   -1.4900    1.4790    2.4460 H   0  0  0  0  0  0  0  0  0  0  0  0
    0.0220   -1.9440   -0.8550 H   0  0  0  0  0  0  0  0  0  0  0  0
   -2.0610    2.7830    4.4800 H   0  0  0  0  0  0  0  0  0  0  0  0
   -2.2840    3.2740    0.1310 H   0  0  0  0  0  0  0  0  0  0  0  0
   -0.7270    2.4310    0.3150 H   0  0  0  0  0  0  0  0  0  0  0  0
   -4.2940    1.9450    0.2970 H   0  0  0  0  0  0  0  0  0  0  0  0
   -4.2760    0.3100   -0.4060 H   0  0  0  0  0  0  0  0  0  0  0  0
    2.0720    1.8390    1.3780 H   0  0  0  0  0  0  0  0  0  0  0  0
   -3.5810    1.2430   -2.5680 H   0  0  0  0  0  0  0  0  0  0  0  0
   -3.5850    2.8790   -1.8670 H   0  0  0  0  0  0  0  0  0  0  0  0
   -1.1620    5.5770    4.4380 H   0  0  0  0  0  0  0  0  0  0  0  0
    4.2560   -1.1330    0.6560 H   0  0  0  0  0  0  0  0  0  0  0  0
    3.9400   -0.0650    2.0440 H   0  0  0  0  0  0  0  0  0  0  0  0
    4.3680    0.6330    0.4640 H   0  0  0  0  0  0  0  0  0  0  0  0
   -5.6980    4.0080   -1.3270 H   0  0  0  0  0  0  0  0  0  0  0  0
   -5.6850    0.0650   -3.0190 H   0  0  0  0  0  0  0  0  0  0  0  0
   -2.0800    3.7740    6.6880 H   0  0  0  0  0  0  0  0  0  0  0  0
   -3.0390    5.0170    5.8490 H   0  0  0  0  0  0  0  0  0  0  0  0
    0.9530    4.3880    4.5090 H   0  0  0  0  0  0  0  0  0  0  0  0
    0.3770    3.3850    5.8610 H   0  0  0  0  0  0  0  0  0  0  0  0
   -8.1090    4.2100   -1.8260 H   0  0  0  0  0  0  0  0  0  0  0  0
   -8.0950    0.2750   -3.5170 H   0  0  0  0  0  0  0  0  0  0  0  0
   -2.1840    5.7610    8.0630 H   0  0  0  0  0  0  0  0  0  0  0  0
   -1.6160    6.7720    6.7140 H   0  0  0  0  0  0  0  0  0  0  0  0
    0.8680    6.3830    5.8830 H   0  0  0  0  0  0  0  0  0  0  0  0
    1.8150    5.1340    6.7270 H   0  0  0  0  0  0  0  0  0  0  0  0
   -9.3070    2.3470   -2.9260 H   0  0  0  0  0  0  0  0  0  0  0  0
   -0.0610    4.6030    8.1610 H   0  0  0  0  0  0  0  0  0  0  0  0
    0.2340    6.3570    8.2190 H   0  0  0  0  0  0  0  0  0  0  0  0
  1  2  1  0  0  0  0
  1  4  1  0  0  0  0
  1 10  2  0  0  0  0
  2  3  1  0  0  0  0
  2  8  2  0  0  0  0
  3 14  2  0  0  0  0
  4 11  1  0  0  0  0
  4 13  1  0  0  0  0
  5  7  1  0  0  0  0
  5  9  1  0  0  0  0
  5 12  2  0  0  0  0
  6  8  1  0  0  0  0
  6 15  2  0  0  0  0
  7 11  1  0  0  0  0
  7 30  1  0  0  0  0
  7 31  1  0  0  0  0
  8 32  1  0  0  0  0
  9 17  1  0  0  0  0
  9 33  1  0  0  0  0
 11 34  1  0  0  0  0
 11 35  1  0  0  0  0
 13 16  1  0  0  0  0
 13 36  1  0  0  0  0
 13 37  1  0  0  0  0
 14 15  1  0  0  0  0
 14 38  1  0  0  0  0
 15 19  1  0  0  0  0
 16 18  1  0  0  0  0
 16 39  1  0  0  0  0
 16 40  1  0  0  0  0
 17 22  1  0  0  0  0
 17 23  1  0  0  0  0
 17 41  1  0  0  0  0
 18 20  2  0  0  0  0
 18 21  1  0  0  0  0
 19 42  1  0  0  0  0
 19 43  1  0  0  0  0
 19 44  1  0  0  0  0
 20 24  1  0  0  0  0
 20 45  1  0  0  0  0
 21 25  2  0  0  0  0
 21 46  1  0  0  0  0
 22 26  1  0  0  0  0
 22 47  1  0  0  0  0
 22 48  1  0  0  0  0
 23 27  1  0  0  0  0
 23 49  1  0  0  0  0
 23 50  1  0  0  0  0
 24 28  2  0  0  0  0
 24 51  1  0  0  0  0
 25 28  1  0  0  0  0
 25 52  1  0  0  0  0
 26 29  1  0  0  0  0
 26 53  1  0  0  0  0
 26 54  1  0  0  0  0
 27 29  1  0  0  0  0
 27 55  1  0  0  0  0
 27 56  1  0  0  0  0
 28 57  1  0  0  0  0
 29 58  1  0  0  0  0
 29 59  1  0  0  0  0
M  END
>  <$CLUSTER>
400

>  <INDEX>
265611

$$$$
Comgenex CGX-3338016
  MOE2020           3D

 50 52  0  0  0  0  0  0  0  0999 V2000
   -0.2110   -0.1360    0.3340 N   0  0  0  0  0  0  0  0  0  0  0  0
    0.9460    0.5660    0.0800 C   0  0  0  0  0  0  0  0  0  0  0  0
    1.4680    0.2440   -1.0820 N   0  0  0  0  0  0  0  0  0  0  0  0
   -0.4330   -0.9560   -0.7570 C   0  0  0  0  0  0  0  0  0  0  0  0
    2.6880    2.4190   -2.0930 N   0  0  0  0  0  0  0  0  0  0  0  0
    0.6240   -0.6950   -1.6050 C   0  0  0  0  0  0  0  0  0  0  0  0
    2.7320    3.1220   -0.9380 C   0  0  0  0  0  0  0  0  0  0  0  0
    1.6020    1.7370    1.1850 S   0  0  0  0  0  0  0  0  0  0  0  0
   -1.0570   -0.0560    1.5140 C   0  0  0  0  0  0  0  0  0  0  0  0
    3.0730    2.2860    0.2930 C   0  0  0  0  0  0  0  0  0  0  0  0
    2.9900    0.9780   -2.2860 C   0  0  0  0  0  0  0  0  0  0  0  0
    2.3520    3.0970   -3.3740 C   0  0  0  0  0  0  0  0  0  0  0  0
    2.4430    4.3110   -0.8700 O   0  0  0  0  0  0  0  0  0  0  0  0
   -2.1170    1.0260    1.3960 C   0  0  0  0  0  0  0  0  0  0  0  0
   -3.4270    0.7010    1.0210 C   0  0  0  0  0  0  0  0  0  0  0  0
   -4.3970    1.7020    0.9100 C   0  0  0  0  0  0  0  0  0  0  0  0
   -1.5770   -1.8840   -0.9150 C   0  0  0  0  0  0  0  0  0  0  0  0
    3.5030    2.9580   -4.3680 C   0  0  0  0  0  0  0  0  0  0  0  0
    4.1520    0.8000   -3.2610 C   0  0  0  0  0  0  0  0  0  0  0  0
   -5.6650    1.4670    0.5680 F   0  0  0  0  0  0  0  0  0  0  0  0
    3.8890    1.4930   -4.6030 C   0  0  0  0  0  0  0  0  0  0  0  0
   -1.2630   -3.0620   -0.1880 O   0  0  0  0  0  0  0  0  0  0  0  0
   -2.7560    3.3660    1.5200 C   0  0  0  0  0  0  0  0  0  0  0  0
   -1.7840    2.3680    1.6310 C   0  0  0  0  0  0  0  0  0  0  0  0
   -4.0620    3.0320    1.1620 C   0  0  0  0  0  0  0  0  0  0  0  0
    5.1020    1.3850   -5.5240 C   0  0  0  0  0  0  0  0  0  0  0  0
    0.7660   -1.1730   -2.5630 H   0  0  0  0  0  0  0  0  0  0  0  0
   -0.4310    0.1610    2.3790 H   0  0  0  0  0  0  0  0  0  0  0  0
   -1.5520   -1.0170    1.6550 H   0  0  0  0  0  0  0  0  0  0  0  0
    3.6850    2.8870    0.9650 H   0  0  0  0  0  0  0  0  0  0  0  0
    3.6370    1.4090   -0.0250 H   0  0  0  0  0  0  0  0  0  0  0  0
    2.1080    0.4770   -2.6840 H   0  0  0  0  0  0  0  0  0  0  0  0
    3.2560    0.5360   -1.3260 H   0  0  0  0  0  0  0  0  0  0  0  0
    2.1680    4.1540   -3.1830 H   0  0  0  0  0  0  0  0  0  0  0  0
    1.4560    2.6430   -3.7960 H   0  0  0  0  0  0  0  0  0  0  0  0
   -3.6890   -0.3270    0.8170 H   0  0  0  0  0  0  0  0  0  0  0  0
   -1.7220   -2.1230   -1.9690 H   0  0  0  0  0  0  0  0  0  0  0  0
   -2.4840   -1.4300   -0.5170 H   0  0  0  0  0  0  0  0  0  0  0  0
    4.3700    3.4920   -3.9790 H   0  0  0  0  0  0  0  0  0  0  0  0
    3.2020    3.3990   -5.3180 H   0  0  0  0  0  0  0  0  0  0  0  0
    4.3020   -0.2650   -3.4390 H   0  0  0  0  0  0  0  0  0  0  0  0
    5.0520    1.2250   -2.8160 H   0  0  0  0  0  0  0  0  0  0  0  0
    3.0580    0.9900   -5.0980 H   0  0  0  0  0  0  0  0  0  0  0  0
   -0.4620   -3.4320   -0.5660 H   0  0  0  0  0  0  0  0  0  0  0  0
   -2.4960    4.3970    1.7120 H   0  0  0  0  0  0  0  0  0  0  0  0
   -0.7710    2.6310    1.8990 H   0  0  0  0  0  0  0  0  0  0  0  0
   -4.8140    3.8030    1.0800 H   0  0  0  0  0  0  0  0  0  0  0  0
    5.9560    1.8790   -5.0600 H   0  0  0  0  0  0  0  0  0  0  0  0
    4.8780    1.8640   -6.4770 H   0  0  0  0  0  0  0  0  0  0  0  0
    5.3380    0.3340   -5.6920 H   0  0  0  0  0  0  0  0  0  0  0  0
  1  2  1  0  0  0  0
  1  4  1  0  0  0  0
  1  9  1  0  0  0  0
  2  3  2  0  0  0  0
  2  8  1  0  0  0  0
  3  6  1  0  0  0  0
  4  6  2  0  0  0  0
  4 17  1  0  0  0  0
  5  7  1  0  0  0  0
  5 11  1  0  0  0  0
  5 12  1  0  0  0  0
  6 27  1  0  0  0  0
  7 10  1  0  0  0  0
  7 13  2  0  0  0  0
  8 10  1  0  0  0  0
  9 14  1  0  0  0  0
  9 28  1  0  0  0  0
  9 29  1  0  0  0  0
 10 30  1  0  0  0  0
 10 31  1  0  0  0  0
 11 19  1  0  0  0  0
 11 32  1  0  0  0  0
 11 33  1  0  0  0  0
 12 18  1  0  0  0  0
 12 34  1  0  0  0  0
 12 35  1  0  0  0  0
 14 15  2  0  0  0  0
 14 24  1  0  0  0  0
 15 16  1  0  0  0  0
 15 36  1  0  0  0  0
 16 20  1  0  0  0  0
 16 25  2  0  0  0  0
 17 22  1  0  0  0  0
 17 37  1  0  0  0  0
 17 38  1  0  0  0  0
 18 21  1  0  0  0  0
 18 39  1  0  0  0  0
 18 40  1  0  0  0  0
 19 21  1  0  0  0  0
 19 41  1  0  0  0  0
 19 42  1  0  0  0  0
 21 26  1  0  0  0  0
 21 43  1  0  0  0  0
 22 44  1  0  0  0  0
 23 24  2  0  0  0  0
 23 25  1  0  0  0  0
 23 45  1  0  0  0  0
 24 46  1  0  0  0  0
 25 47  1  0  0  0  0
 26 48  1  0  0  0  0
 26 49  1  0  0  0  0
 26 50  1  0  0  0  0
M  END
>  <$CLUSTER>
401

>  <INDEX>
267483

$$$$
Life Chemicals F0060-0019
  MOE2020           3D

 31 32  0  0  0  0  0  0  0  0999 V2000
    0.0880   -2.5860   -0.9400 C   0  0  0  0  0  0  0  0  0  0  0  0
   -0.7880   -1.6440   -0.4390 N   0  0  0  0  0  0  0  0  0  0  0  0
   -0.1640   -0.4950   -0.2880 C   0  0  0  0  0  0  0  0  0  0  0  0
   -0.7950    0.6370    0.1990 N   0  0  0  0  0  0  0  0  0  0  0  0
   -0.2290    1.8900    0.3940 C   0  0  0  0  0  0  0  0  0  0  0  0
    1.4870   -0.4910   -0.7360 S   0  0  0  0  0  0  0  0  0  0  0  0
    1.3720   -2.1440   -1.1660 C   0  0  0  0  0  0  0  0  0  0  0  0
   -0.3550   -3.9520   -1.2000 C   0  0  0  0  0  0  0  0  0  0  0  0
   -1.2460    2.8610    0.9420 C   0  0  0  0  0  0  0  0  0  0  0  0
    0.9250    2.2490    0.1800 O   0  0  0  0  0  0  0  0  0  0  0  0
    0.3650   -4.8380   -1.6430 O   0  0  0  0  0  0  0  0  0  0  0  0
   -0.9840    4.2460    0.6940 C   0  0  0  0  0  0  0  0  0  0  0  0
   -1.8610    5.2160    1.1850 C   0  0  0  0  0  0  0  0  0  0  0  0
   -1.6660   -4.1510   -0.9000 O   0  0  0  0  0  0  0  0  0  0  0  0
   -1.5790    6.8670    0.8790 Cl  0  0  0  0  0  0  0  0  0  0  0  0
   -2.3390    2.5120    1.7000 C   0  0  0  0  0  0  0  0  0  0  0  0
   -3.2120    3.4870    2.1900 C   0  0  0  0  0  0  0  0  0  0  0  0
   -2.9750    4.8360    1.9310 C   0  0  0  0  0  0  0  0  0  0  0  0
   -2.2210   -5.4360   -1.1060 C   0  0  0  0  0  0  0  0  0  0  0  0
   -3.6820   -5.4110   -0.7060 C   0  0  0  0  0  0  0  0  0  0  0  0
   -1.7720    0.5410    0.4380 H   0  0  0  0  0  0  0  0  0  0  0  0
    2.1800   -2.7460   -1.5540 H   0  0  0  0  0  0  0  0  0  0  0  0
   -0.1120    4.5400    0.1290 H   0  0  0  0  0  0  0  0  0  0  0  0
   -2.5250    1.4710    1.9190 H   0  0  0  0  0  0  0  0  0  0  0  0
   -4.0740    3.1940    2.7720 H   0  0  0  0  0  0  0  0  0  0  0  0
   -3.6540    5.5860    2.3080 H   0  0  0  0  0  0  0  0  0  0  0  0
   -1.6880   -6.1660   -0.4980 H   0  0  0  0  0  0  0  0  0  0  0  0
   -2.1350   -5.7070   -2.1580 H   0  0  0  0  0  0  0  0  0  0  0  0
   -3.7660   -5.1400    0.3460 H   0  0  0  0  0  0  0  0  0  0  0  0
   -4.1190   -6.3970   -0.8630 H   0  0  0  0  0  0  0  0  0  0  0  0
   -4.2130   -4.6780   -1.3140 H   0  0  0  0  0  0  0  0  0  0  0  0
  1  2  1  0  0  0  0
  1  7  2  0  0  0  0
  1  8  1  0  0  0  0
  2  3  2  0  0  0  0
  3  4  1  0  0  0  0
  3  6  1  0  0  0  0
  4  5  1  0  0  0  0
  4 21  1  0  0  0  0
  5  9  1  0  0  0  0
  5 10  2  0  0  0  0
  6  7  1  0  0  0  0
  7 22  1  0  0  0  0
  8 11  2  0  0  0  0
  8 14  1  0  0  0  0
  9 12  2  0  0  0  0
  9 16  1  0  0  0  0
 12 13  1  0  0  0  0
 12 23  1  0  0  0  0
 13 15  1  0  0  0  0
 13 18  2  0  0  0  0
 14 19  1  0  0  0  0
 16 17  2  0  0  0  0
 16 24  1  0  0  0  0
 17 18  1  0  0  0  0
 17 25  1  0  0  0  0
 18 26  1  0  0  0  0
 19 20  1  0  0  0  0
 19 27  1  0  0  0  0
 19 28  1  0  0  0  0
 20 29  1  0  0  0  0
 20 30  1  0  0  0  0
 20 31  1  0  0  0  0
M  END
>  <$CLUSTER>
402

>  <INDEX>
268863

$$$$
Life Chemicals F0326-0247
  MOE2020           3D

 36 38  0  0  0  0  0  0  0  0999 V2000
   -3.4130    3.1340   -1.7170 S   0  0  0  0  0  0  0  0  0  0  0  0
   -3.6090    1.4450   -1.5490 C   0  0  0  0  0  0  0  0  0  0  0  0
   -0.6840   -0.1030    0.1850 C   0  0  0  0  0  0  0  0  0  0  0  0
   -4.9370    3.1600   -2.4970 C   0  0  0  0  0  0  0  0  0  0  0  0
   -1.4560    1.0090   -0.3840 C   0  0  0  0  0  0  0  0  0  0  0  0
    1.3960    0.7600   -0.8040 N   0  3  0  0  0  0  0  0  0  0  0  0
   -5.5150    1.9840   -2.6050 N   0  0  0  0  0  0  0  0  0  0  0  0
   -2.6490    0.6900   -0.9410 N   0  0  0  0  0  0  0  0  0  0  0  0
    0.6960   -0.1830    0.0310 C   0  0  0  0  0  0  0  0  0  0  0  0
   -4.7380    0.9840   -2.0510 N   0  0  0  0  0  0  0  0  0  0  0  0
   -5.5510    4.4220   -3.0100 C   0  0  0  0  0  0  0  0  0  0  0  0
    1.4470   -1.2040    0.6250 C   0  0  0  0  0  0  0  0  0  0  0  0
   -1.3300   -1.0750    0.9600 C   0  0  0  0  0  0  0  0  0  0  0  0
    1.1720    0.7200   -2.0240 O   0  5  0  0  0  0  0  0  0  0  0  0
    2.2250    1.5020   -0.2530 O   0  0  0  0  0  0  0  0  0  0  0  0
   -1.0180    2.1530   -0.3430 O   0  0  0  0  0  0  0  0  0  0  0  0
   -4.9300    5.6780   -2.9080 C   0  0  0  0  0  0  0  0  0  0  0  0
   -0.5930   -2.1020    1.5560 C   0  0  0  0  0  0  0  0  0  0  0  0
    0.7910   -2.1650    1.3920 C   0  0  0  0  0  0  0  0  0  0  0  0
   -5.5490    6.8300   -3.4050 C   0  0  0  0  0  0  0  0  0  0  0  0
   -1.4050   -3.2780    2.4860 Cl  0  0  0  0  0  0  0  0  0  0  0  0
   -6.8130    4.3640   -3.6280 C   0  0  0  0  0  0  0  0  0  0  0  0
   -7.4310    5.5160   -4.1240 C   0  0  0  0  0  0  0  0  0  0  0  0
   -6.7990    6.7500   -4.0120 C   0  0  0  0  0  0  0  0  0  0  0  0
   -4.8640    8.1540   -3.2830 C   0  0  0  0  0  0  0  0  0  0  0  0
   -2.8700   -0.2950   -0.8980 H   0  0  0  0  0  0  0  0  0  0  0  0
    2.5180   -1.2460    0.4910 H   0  0  0  0  0  0  0  0  0  0  0  0
   -2.4000   -1.0310    1.0970 H   0  0  0  0  0  0  0  0  0  0  0  0
   -3.9600    5.7550   -2.4390 H   0  0  0  0  0  0  0  0  0  0  0  0
    1.3540   -2.9590    1.8600 H   0  0  0  0  0  0  0  0  0  0  0  0
   -7.3140    3.4120   -3.7210 H   0  0  0  0  0  0  0  0  0  0  0  0
   -8.4010    5.4480   -4.5950 H   0  0  0  0  0  0  0  0  0  0  0  0
   -7.2750    7.6410   -4.3940 H   0  0  0  0  0  0  0  0  0  0  0  0
   -3.9040    8.0220   -2.7850 H   0  0  0  0  0  0  0  0  0  0  0  0
   -5.4860    8.8320   -2.6990 H   0  0  0  0  0  0  0  0  0  0  0  0
   -4.7030    8.5730   -4.2760 H   0  0  0  0  0  0  0  0  0  0  0  0
  1  2  1  0  0  0  0
  1  4  1  0  0  0  0
  2  8  1  0  0  0  0
  2 10  2  0  0  0  0
  3  5  1  0  0  0  0
  3  9  2  0  0  0  0
  3 13  1  0  0  0  0
  4  7  2  0  0  0  0
  4 11  1  0  0  0  0
  5  8  1  0  0  0  0
  5 16  2  0  0  0  0
  6  9  1  0  0  0  0
  6 14  1  0  0  0  0
  6 15  2  0  0  0  0
  7 10  1  0  0  0  0
  8 26  1  0  0  0  0
  9 12  1  0  0  0  0
 11 17  2  0  0  0  0
 11 22  1  0  0  0  0
 12 19  2  0  0  0  0
 12 27  1  0  0  0  0
 13 18  2  0  0  0  0
 13 28  1  0  0  0  0
 17 20  1  0  0  0  0
 17 29  1  0  0  0  0
 18 19  1  0  0  0  0
 18 21  1  0  0  0  0
 19 30  1  0  0  0  0
 20 24  2  0  0  0  0
 20 25  1  0  0  0  0
 22 23  2  0  0  0  0
 22 31  1  0  0  0  0
 23 24  1  0  0  0  0
 23 32  1  0  0  0  0
 24 33  1  0  0  0  0
 25 34  1  0  0  0  0
 25 35  1  0  0  0  0
 25 36  1  0  0  0  0
M  CHG  1   6   1
M  CHG  1  14  -1
M  END
>  <$CLUSTER>
403

>  <INDEX>
269461

$$$$
Chem T&I NSB 0030424
  MOE2020           3D

 35 36  0  0  0  0  0  0  0  0999 V2000
    0.8190    1.0430    0.0640 C   0  0  0  0  0  0  0  0  0  0  0  0
   -0.3280    0.2530    0.0580 C   0  0  0  0  0  0  0  0  0  0  0  0
   -0.2780   -1.1400    0.1440 N   0  0  0  0  0  0  0  0  0  0  0  0
   -1.3690   -1.9960    0.1440 C   0  0  0  0  0  0  0  0  0  0  0  0
    2.2290    0.7030    0.1520 C   0  0  0  0  0  0  0  0  0  0  0  0
    0.4320    2.7180   -0.0550 S   0  0  0  0  0  0  0  0  0  0  0  0
   -0.9340   -3.4360    0.2510 C   0  0  0  0  0  0  0  0  0  0  0  0
   -1.5090    1.0590   -0.0470 C   0  0  0  0  0  0  0  0  0  0  0  0
   -1.8540   -4.4040   -0.2600 C   0  0  0  0  0  0  0  0  0  0  0  0
   -1.2370    2.4050   -0.1150 C   0  0  0  0  0  0  0  0  0  0  0  0
   -1.5420   -5.7630   -0.1800 C   0  0  0  0  0  0  0  0  0  0  0  0
   -2.5580   -1.7000    0.0690 O   0  0  0  0  0  0  0  0  0  0  0  0
   -0.3500   -6.1720    0.4130 C   0  0  0  0  0  0  0  0  0  0  0  0
    3.1740    1.4830    0.1490 O   0  0  0  0  0  0  0  0  0  0  0  0
    0.2250   -3.8630    0.8530 C   0  0  0  0  0  0  0  0  0  0  0  0
    0.5310   -5.2230    0.9310 C   0  0  0  0  0  0  0  0  0  0  0  0
    2.4130   -0.6410    0.2410 O   0  0  0  0  0  0  0  0  0  0  0  0
   -2.4890   -6.7800   -0.7300 C   0  0  0  0  0  0  0  0  0  0  0  0
   -0.0170   -7.6260    0.4920 C   0  0  0  0  0  0  0  0  0  0  0  0
    3.7420   -1.1400    0.3340 C   0  0  0  0  0  0  0  0  0  0  0  0
    0.6370   -1.5630    0.2120 H   0  0  0  0  0  0  0  0  0  0  0  0
   -2.5090    0.6510   -0.0700 H   0  0  0  0  0  0  0  0  0  0  0  0
   -2.7850   -4.0860   -0.7050 H   0  0  0  0  0  0  0  0  0  0  0  0
   -1.9930    3.1710   -0.1970 H   0  0  0  0  0  0  0  0  0  0  0  0
    0.9080   -3.1380    1.2710 H   0  0  0  0  0  0  0  0  0  0  0  0
    1.4530   -5.5410    1.3940 H   0  0  0  0  0  0  0  0  0  0  0  0
   -3.3590   -6.2760   -1.1510 H   0  0  0  0  0  0  0  0  0  0  0  0
   -2.8080   -7.4490    0.0690 H   0  0  0  0  0  0  0  0  0  0  0  0
   -1.9910   -7.3560   -1.5090 H   0  0  0  0  0  0  0  0  0  0  0  0
   -0.8190   -8.2080    0.0380 H   0  0  0  0  0  0  0  0  0  0  0  0
    0.0970   -7.9160    1.5360 H   0  0  0  0  0  0  0  0  0  0  0  0
    0.9150   -7.8150   -0.0410 H   0  0  0  0  0  0  0  0  0  0  0  0
    3.7180   -2.2280    0.3980 H   0  0  0  0  0  0  0  0  0  0  0  0
    4.2210   -0.7340    1.2250 H   0  0  0  0  0  0  0  0  0  0  0  0
    4.3050   -0.8400   -0.5500 H   0  0  0  0  0  0  0  0  0  0  0  0
  1  2  2  0  0  0  0
  1  5  1  0  0  0  0
  1  6  1  0  0  0  0
  2  3  1  0  0  0  0
  2  8  1  0  0  0  0
  3  4  1  0  0  0  0
  3 21  1  0  0  0  0
  4  7  1  0  0  0  0
  4 12  2  0  0  0  0
  5 14  2  0  0  0  0
  5 17  1  0  0  0  0
  6 10  1  0  0  0  0
  7  9  1  0  0  0  0
  7 15  2  0  0  0  0
  8 10  2  0  0  0  0
  8 22  1  0  0  0  0
  9 11  2  0  0  0  0
  9 23  1  0  0  0  0
 10 24  1  0  0  0  0
 11 13  1  0  0  0  0
 11 18  1  0  0  0  0
 13 16  2  0  0  0  0
 13 19  1  0  0  0  0
 15 16  1  0  0  0  0
 15 25  1  0  0  0  0
 16 26  1  0  0  0  0
 17 20  1  0  0  0  0
 18 27  1  0  0  0  0
 18 28  1  0  0  0  0
 18 29  1  0  0  0  0
 19 30  1  0  0  0  0
 19 31  1  0  0  0  0
 19 32  1  0  0  0  0
 20 33  1  0  0  0  0
 20 34  1  0  0  0  0
 20 35  1  0  0  0  0
M  END
>  <$CLUSTER>
404

>  <INDEX>
569896

$$$$
Tripos 1547-01093
  MOE2020           3D

 47 49  0  0  1  0  0  0  0  0999 V2000
   -0.2100   -1.5620   -1.0230 N   0  0  0  0  0  0  0  0  0  0  0  0
   -0.0380   -2.2820   -2.1340 C   0  0  0  0  0  0  0  0  0  0  0  0
    0.0510    0.8220    0.6960 N   0  3  0  0  0  0  0  0  0  0  0  0
    1.2420   -2.3220   -2.7370 C   0  0  0  0  0  0  0  0  0  0  0  0
    0.8770    3.6700    3.1150 C   0  0  0  0  0  0  0  0  0  0  0  0
    0.4550    2.2220    1.0390 C   0  0  0  0  0  0  0  0  0  0  0  0
    0.8600    2.2550    2.5430 C   0  0  2  0  0  0  0  0  0  0  0  0
   -1.0680   -3.0220   -2.7660 C   0  0  0  0  0  0  0  0  0  0  0  0
   -1.3610   -0.6890   -0.7360 C   0  0  0  0  0  0  0  0  0  0  0  0
    0.7800   -1.5030    0.0660 C   0  0  0  0  0  0  0  0  0  0  0  0
    2.1070    4.2640    3.4120 C   0  0  0  0  0  0  0  0  0  0  0  0
   -0.8070   -3.7080   -3.9710 C   0  0  0  0  0  0  0  0  0  0  0  0
    1.4890   -3.0190   -3.9220 C   0  0  0  0  0  0  0  0  0  0  0  0
    1.2470   -0.0640    0.3930 C   0  0  0  0  0  0  0  0  0  0  0  0
   -0.9610    0.7750   -0.4350 C   0  0  0  0  0  0  0  0  0  0  0  0
    2.1510    5.5640    3.9200 C   0  0  0  0  0  0  0  0  0  0  0  0
    0.4600   -3.7070   -4.5450 C   0  0  0  0  0  0  0  0  0  0  0  0
    3.0490   -3.0290   -4.6050 Cl  0  0  0  0  0  0  0  0  0  0  0  0
   -0.0840    1.4480    3.2650 O   0  0  0  0  0  0  0  0  0  0  0  0
    3.6440    6.2880    4.3040 Cl  0  0  0  0  0  0  0  0  0  0  0  0
   -0.3010    4.3950    3.2950 C   0  0  0  0  0  0  0  0  0  0  0  0
   -0.2550    5.6940    3.8030 C   0  0  0  0  0  0  0  0  0  0  0  0
   -2.4580   -3.1530   -2.1990 C   0  0  0  0  0  0  0  0  0  0  0  0
    0.9720    6.2780    4.1150 C   0  0  0  0  0  0  0  0  0  0  0  0
   -0.4000    0.4520    1.5210 H   0  0  0  0  0  0  0  0  0  0  0  0
    2.0570   -1.7950   -2.2640 H   0  0  0  0  0  0  0  0  0  0  0  0
    1.3010    2.5240    0.4220 H   0  0  0  0  0  0  0  0  0  0  0  0
   -0.3810    2.9000    0.8670 H   0  0  0  0  0  0  0  0  0  0  0  0
    1.8750    1.8700    2.6420 H   0  0  0  0  0  0  0  0  0  0  0  0
   -2.0240   -0.6950   -1.6010 H   0  0  0  0  0  0  0  0  0  0  0  0
   -1.8900   -1.0880    0.1300 H   0  0  0  0  0  0  0  0  0  0  0  0
    0.3340   -1.9340    0.9620 H   0  0  0  0  0  0  0  0  0  0  0  0
    1.6500   -2.0910   -0.2260 H   0  0  0  0  0  0  0  0  0  0  0  0
    3.0240    3.7170    3.2480 H   0  0  0  0  0  0  0  0  0  0  0  0
   -1.6080   -4.2450   -4.4580 H   0  0  0  0  0  0  0  0  0  0  0  0
    1.7880    0.3420   -0.4620 H   0  0  0  0  0  0  0  0  0  0  0  0
    1.9060   -0.0880    1.2610 H   0  0  0  0  0  0  0  0  0  0  0  0
   -1.8490    1.3390   -0.1470 H   0  0  0  0  0  0  0  0  0  0  0  0
   -0.5230    1.2190   -1.3290 H   0  0  0  0  0  0  0  0  0  0  0  0
    0.6400   -4.2380   -5.4680 H   0  0  0  0  0  0  0  0  0  0  0  0
   -0.9530    1.8360    3.1400 H   0  0  0  0  0  0  0  0  0  0  0  0
   -1.2510    3.9500    3.0400 H   0  0  0  0  0  0  0  0  0  0  0  0
   -1.1700    6.2470    3.9550 H   0  0  0  0  0  0  0  0  0  0  0  0
   -3.0650   -3.7680   -2.8640 H   0  0  0  0  0  0  0  0  0  0  0  0
   -2.9080   -2.1640   -2.1070 H   0  0  0  0  0  0  0  0  0  0  0  0
   -2.4070   -3.6220   -1.2160 H   0  0  0  0  0  0  0  0  0  0  0  0
    1.0080    7.2830    4.5080 H   0  0  0  0  0  0  0  0  0  0  0  0
  1  2  1  0  0  0  0
  1  9  1  0  0  0  0
  1 10  1  0  0  0  0
  2  4  2  0  0  0  0
  2  8  1  0  0  0  0
  3  6  1  0  0  0  0
  3 14  1  0  0  0  0
  3 15  1  0  0  0  0
  3 25  1  0  0  0  0
  4 13  1  0  0  0  0
  4 26  1  0  0  0  0
  5  7  1  0  0  0  0
  5 11  2  0  0  0  0
  5 21  1  0  0  0  0
  6  7  1  0  0  0  0
  6 27  1  0  0  0  0
  6 28  1  0  0  0  0
  7 19  1  0  0  0  0
  7 29  1  0  0  0  0
  8 12  2  0  0  0  0
  8 23  1  0  0  0  0
  9 15  1  0  0  0  0
  9 30  1  0  0  0  0
  9 31  1  0  0  0  0
 10 14  1  0  0  0  0
 10 32  1  0  0  0  0
 10 33  1  0  0  0  0
 11 16  1  0  0  0  0
 11 34  1  0  0  0  0
 12 17  1  0  0  0  0
 12 35  1  0  0  0  0
 13 17  2  0  0  0  0
 13 18  1  0  0  0  0
 14 36  1  0  0  0  0
 14 37  1  0  0  0  0
 15 38  1  0  0  0  0
 15 39  1  0  0  0  0
 16 20  1  0  0  0  0
 16 24  2  0  0  0  0
 17 40  1  0  0  0  0
 19 41  1  0  0  0  0
 21 22  2  0  0  0  0
 21 42  1  0  0  0  0
 22 24  1  0  0  0  0
 22 43  1  0  0  0  0
 23 44  1  0  0  0  0
 23 45  1  0  0  0  0
 23 46  1  0  0  0  0
 24 47  1  0  0  0  0
M  CHG  1   3   1
M  END
>  <$CLUSTER>
405

>  <INDEX>
464576

$$$$
Life Chemicals F0417-0114
  MOE2020           3D

 42 44  0  0  0  0  0  0  0  0999 V2000
   -0.2220   -0.4340   -0.3220 C   0  0  0  0  0  0  0  0  0  0  0  0
    1.4300   -0.4350   -0.7590 S   0  0  0  0  0  0  0  0  0  0  0  0
   -0.8590    0.6840    0.1840 N   0  0  0  0  0  0  0  0  0  0  0  0
    1.2360   -2.0770   -1.2030 C   0  0  0  0  0  0  0  0  0  0  0  0
   -0.8270   -1.5900   -0.5100 N   0  0  0  0  0  0  0  0  0  0  0  0
    0.0230   -2.5510   -1.0250 N   0  0  0  0  0  0  0  0  0  0  0  0
   -0.2920    1.9310    0.4100 C   0  0  0  0  0  0  0  0  0  0  0  0
    0.7550   -4.5920   -3.2660 C   0  0  0  0  0  0  0  0  0  0  0  0
   -1.3120    2.8930    0.9700 C   0  0  0  0  0  0  0  0  0  0  0  0
    2.5570   -3.0380   -1.8420 S   0  0  0  0  0  0  0  0  0  0  0  0
   -0.5270   -4.3690   -2.8920 N   0  0  0  0  0  0  0  0  0  0  0  0
    0.8640    2.2920    0.2130 O   0  0  0  0  0  0  0  0  0  0  0  0
    1.1000   -4.6760   -4.4400 O   0  0  0  0  0  0  0  0  0  0  0  0
   -1.0450    4.2820    0.7530 C   0  0  0  0  0  0  0  0  0  0  0  0
   -2.4110    2.5310    1.7110 C   0  0  0  0  0  0  0  0  0  0  0  0
    1.7500   -4.6310   -2.1090 C   0  0  0  0  0  0  0  0  0  0  0  0
   -1.7170   -4.2570   -3.6250 C   0  0  0  0  0  0  0  0  0  0  0  0
   -3.0450    4.8500    1.9860 C   0  0  0  0  0  0  0  0  0  0  0  0
   -3.2870    3.4970    2.2140 C   0  0  0  0  0  0  0  0  0  0  0  0
   -1.9240    5.2430    1.2570 C   0  0  0  0  0  0  0  0  0  0  0  0
   -4.1260    6.0110    2.6020 Cl  0  0  0  0  0  0  0  0  0  0  0  0
   -4.1450   -4.0110   -5.0190 C   0  0  0  0  0  0  0  0  0  0  0  0
   -1.7430   -4.3350   -5.0210 C   0  0  0  0  0  0  0  0  0  0  0  0
   -2.9240   -4.0550   -2.9370 C   0  0  0  0  0  0  0  0  0  0  0  0
   -2.9530   -4.2110   -5.7130 C   0  0  0  0  0  0  0  0  0  0  0  0
   -4.1300   -3.9330   -3.6300 C   0  0  0  0  0  0  0  0  0  0  0  0
   -5.4330   -3.8800   -5.7620 C   0  0  0  0  0  0  0  0  0  0  0  0
   -1.8380    0.5830    0.4130 H   0  0  0  0  0  0  0  0  0  0  0  0
   -0.6490   -4.2630   -1.8950 H   0  0  0  0  0  0  0  0  0  0  0  0
   -0.1670    4.5860    0.2020 H   0  0  0  0  0  0  0  0  0  0  0  0
   -2.6000    1.4860    1.9070 H   0  0  0  0  0  0  0  0  0  0  0  0
    2.5130   -5.3780   -2.3280 H   0  0  0  0  0  0  0  0  0  0  0  0
    1.2190   -4.9110   -1.1990 H   0  0  0  0  0  0  0  0  0  0  0  0
   -4.1540    3.1940    2.7810 H   0  0  0  0  0  0  0  0  0  0  0  0
   -1.7350    6.2920    1.0820 H   0  0  0  0  0  0  0  0  0  0  0  0
   -0.8250   -4.4920   -5.5680 H   0  0  0  0  0  0  0  0  0  0  0  0
   -2.9200   -3.9930   -1.8590 H   0  0  0  0  0  0  0  0  0  0  0  0
   -2.9630   -4.2710   -6.7910 H   0  0  0  0  0  0  0  0  0  0  0  0
   -5.0510   -3.7780   -3.0880 H   0  0  0  0  0  0  0  0  0  0  0  0
   -5.2460   -3.9670   -6.8320 H   0  0  0  0  0  0  0  0  0  0  0  0
   -5.8780   -2.9080   -5.5490 H   0  0  0  0  0  0  0  0  0  0  0  0
   -6.1160   -4.6690   -5.4470 H   0  0  0  0  0  0  0  0  0  0  0  0
  1  2  1  0  0  0  0
  1  3  1  0  0  0  0
  1  5  2  0  0  0  0
  2  4  1  0  0  0  0
  3  7  1  0  0  0  0
  3 28  1  0  0  0  0
  4  6  2  0  0  0  0
  4 10  1  0  0  0  0
  5  6  1  0  0  0  0
  7  9  1  0  0  0  0
  7 12  2  0  0  0  0
  8 11  1  0  0  0  0
  8 13  2  0  0  0  0
  8 16  1  0  0  0  0
  9 14  1  0  0  0  0
  9 15  2  0  0  0  0
 10 16  1  0  0  0  0
 11 17  1  0  0  0  0
 11 29  1  0  0  0  0
 14 20  2  0  0  0  0
 14 30  1  0  0  0  0
 15 19  1  0  0  0  0
 15 31  1  0  0  0  0
 16 32  1  0  0  0  0
 16 33  1  0  0  0  0
 17 23  2  0  0  0  0
 17 24  1  0  0  0  0
 18 19  2  0  0  0  0
 18 20  1  0  0  0  0
 18 21  1  0  0  0  0
 19 34  1  0  0  0  0
 20 35  1  0  0  0  0
 22 25  2  0  0  0  0
 22 26  1  0  0  0  0
 22 27  1  0  0  0  0
 23 25  1  0  0  0  0
 23 36  1  0  0  0  0
 24 26  2  0  0  0  0
 24 37  1  0  0  0  0
 25 38  1  0  0  0  0
 26 39  1  0  0  0  0
 27 40  1  0  0  0  0
 27 41  1  0  0  0  0
 27 42  1  0  0  0  0
M  END
>  <$CLUSTER>
406

>  <INDEX>
270131

$$$$
Life Chemicals F0526-0400
  MOE2020           3D

 48 50  0  0  1  0  0  0  0  0999 V2000
   -0.0400    0.1390   -1.1500 C   0  0  0  0  0  0  0  0  0  0  0  0
   -0.6610    0.7800   -0.0790 C   0  0  0  0  0  0  0  0  0  0  0  0
    0.3620   -1.0610    0.9430 C   0  0  0  0  0  0  0  0  0  0  0  0
   -0.4400    0.0440    1.1500 C   0  0  0  0  0  0  0  0  0  0  0  0
    0.8000   -1.2610   -0.6750 S   0  0  0  0  0  0  0  0  0  0  0  0
   -0.0500    0.5470   -2.4800 N   0  0  0  0  0  0  0  0  0  0  0  0
    0.5200   -1.4610    3.3960 N   0  3  3  0  0  0  0  0  0  0  0  0
    0.5680   -0.0800   -3.5560 C   0  0  0  0  0  0  0  0  0  0  0  0
   -1.4200    2.0240   -0.2390 C   0  0  0  0  0  0  0  0  0  0  0  0
    0.7880   -2.0190    2.0030 C   0  0  0  0  0  0  0  0  0  0  0  0
   -0.9450    0.3650    2.5310 C   0  0  0  0  0  0  0  0  0  0  0  0
    0.3180    0.6800   -4.8350 C   0  0  0  0  0  0  0  0  0  0  0  0
   -0.8570   -0.8300    3.4890 C   0  0  0  0  0  0  0  0  0  0  0  0
    1.2390   -1.1070   -3.5620 O   0  0  0  0  0  0  0  0  0  0  0  0
   -1.7480    2.5000   -1.3190 O   0  0  0  0  0  0  0  0  0  0  0  0
    0.7500   -2.4900    4.4650 C   0  0  0  0  0  0  0  0  0  0  0  0
    0.4140   -0.0800   -6.0440 C   0  0  0  0  0  0  0  0  0  0  0  0
    0.0790    2.0320   -4.9140 C   0  0  0  0  0  0  0  0  0  0  0  0
   -1.7220    2.6410    0.9330 O   0  0  0  0  0  0  0  0  0  0  0  0
   -0.0430    1.9150   -7.3290 C   0  0  0  0  0  0  0  0  0  0  0  0
   -0.1120    2.6560   -6.1500 C   0  0  0  0  0  0  0  0  0  0  0  0
    0.2220    0.5480   -7.2760 C   0  0  0  0  0  0  0  0  0  0  0  0
   -0.2420    2.5890   -8.4620 F   0  0  0  0  0  0  0  0  0  0  0  0
   -0.0130   -3.8010    4.2990 C   0  0  0  0  0  0  0  0  0  0  0  0
    2.2630   -2.7410    4.6680 C   0  0  0  0  0  0  0  0  0  0  0  0
   -2.4420    3.8420    0.9100 C   0  0  0  0  0  0  0  0  0  0  0  0
   -0.5630    1.3920   -2.6870 H   0  0  0  0  0  0  0  0  0  0  0  0
    1.1910   -0.7240    3.5590 H   0  0  0  0  0  0  0  0  0  0  0  0
    1.8550   -2.2130    1.8980 H   0  0  0  0  0  0  0  0  0  0  0  0
    0.2360   -2.9510    1.8820 H   0  0  0  0  0  0  0  0  0  0  0  0
   -1.9870    0.6760    2.4570 H   0  0  0  0  0  0  0  0  0  0  0  0
   -0.3500    1.1820    2.9380 H   0  0  0  0  0  0  0  0  0  0  0  0
   -1.0310   -0.4890    4.5100 H   0  0  0  0  0  0  0  0  0  0  0  0
   -1.6120   -1.5680    3.2180 H   0  0  0  0  0  0  0  0  0  0  0  0
    0.3250   -2.0500    5.3670 H   0  0  0  0  0  0  0  0  0  0  0  0
    0.6340   -1.1360   -6.0030 H   0  0  0  0  0  0  0  0  0  0  0  0
    0.0380    2.6200   -4.0090 H   0  0  0  0  0  0  0  0  0  0  0  0
   -0.3140    3.7160   -6.1920 H   0  0  0  0  0  0  0  0  0  0  0  0
    0.2790   -0.0260   -8.1890 H   0  0  0  0  0  0  0  0  0  0  0  0
    0.3460   -4.3200    3.4110 H   0  0  0  0  0  0  0  0  0  0  0  0
   -1.0770   -3.5910    4.1920 H   0  0  0  0  0  0  0  0  0  0  0  0
    0.1470   -4.4280    5.1760 H   0  0  0  0  0  0  0  0  0  0  0  0
    2.6830   -3.1810    3.7630 H   0  0  0  0  0  0  0  0  0  0  0  0
    2.4090   -3.4240    5.5050 H   0  0  0  0  0  0  0  0  0  0  0  0
    2.7630   -1.7960    4.8790 H   0  0  0  0  0  0  0  0  0  0  0  0
   -2.5940    4.1940    1.9300 H   0  0  0  0  0  0  0  0  0  0  0  0
   -3.4090    3.6770    0.4350 H   0  0  0  0  0  0  0  0  0  0  0  0
   -1.8830    4.5900    0.3470 H   0  0  0  0  0  0  0  0  0  0  0  0
  1  2  2  0  0  0  0
  1  5  1  0  0  0  0
  1  6  1  0  0  0  0
  2  4  1  0  0  0  0
  2  9  1  0  0  0  0
  3  4  2  0  0  0  0
  3  5  1  0  0  0  0
  3 10  1  0  0  0  0
  4 11  1  0  0  0  0
  6  8  1  0  0  0  0
  6 27  1  0  0  0  0
  7 10  1  0  0  0  0
  7 13  1  0  0  0  0
  7 16  1  0  0  0  0
  7 28  1  0  0  0  0
  8 12  1  0  0  0  0
  8 14  2  0  0  0  0
  9 15  2  0  0  0  0
  9 19  1  0  0  0  0
 10 29  1  0  0  0  0
 10 30  1  0  0  0  0
 11 13  1  0  0  0  0
 11 31  1  0  0  0  0
 11 32  1  0  0  0  0
 12 17  1  0  0  0  0
 12 18  2  0  0  0  0
 13 33  1  0  0  0  0
 13 34  1  0  0  0  0
 16 24  1  0  0  0  0
 16 25  1  0  0  0  0
 16 35  1  0  0  0  0
 17 22  2  0  0  0  0
 17 36  1  0  0  0  0
 18 21  1  0  0  0  0
 18 37  1  0  0  0  0
 19 26  1  0  0  0  0
 20 21  2  0  0  0  0
 20 22  1  0  0  0  0
 20 23  1  0  0  0  0
 21 38  1  0  0  0  0
 22 39  1  0  0  0  0
 24 40  1  0  0  0  0
 24 41  1  0  0  0  0
 24 42  1  0  0  0  0
 25 43  1  0  0  0  0
 25 44  1  0  0  0  0
 25 45  1  0  0  0  0
 26 46  1  0  0  0  0
 26 47  1  0  0  0  0
 26 48  1  0  0  0  0
M  CHG  1   7   1
M  END
>  <$CLUSTER>
407

>  <INDEX>
271580

$$$$
Life Chemicals F0526-1817
  MOE2020           3D

 48 52  0  0  1  0  0  0  0  0999 V2000
   -0.1940   -0.5070   -0.2510 C   0  0  0  0  0  0  0  0  0  0  0  0
    0.8630   -0.7740    0.5970 C   0  0  0  0  0  0  0  0  0  0  0  0
   -0.6750    0.8090   -0.5960 C   0  0  0  0  0  0  0  0  0  0  0  0
   -0.7560   -1.7060   -0.8070 C   0  0  0  0  0  0  0  0  0  0  0  0
   -0.0570   -2.8230   -0.3970 C   0  0  0  0  0  0  0  0  0  0  0  0
   -1.8010    1.2620   -0.1000 N   0  0  0  0  0  0  0  0  0  0  0  0
    1.2320   -2.4480    0.6360 S   0  0  0  0  0  0  0  0  0  0  0  0
    0.1230    1.7760   -1.7530 S   0  0  0  0  0  0  0  0  0  0  0  0
    1.7170   -0.0650    1.4190 N   0  0  0  0  0  0  0  0  0  0  0  0
    1.5950    1.2660    1.7780 C   0  0  0  0  0  0  0  0  0  0  0  0
    2.7770    1.7210    2.5970 C   0  0  0  0  0  0  0  0  0  0  0  0
   -2.0430    2.5080   -0.6470 C   0  0  0  0  0  0  0  0  0  0  0  0
   -1.1090    2.9570   -1.5610 C   0  0  0  0  0  0  0  0  0  0  0  0
   -1.3570   -4.2500   -1.9720 N   0  3  3  0  0  0  0  0  0  0  0  0
   -0.3830   -4.2210   -0.7970 C   0  0  0  0  0  0  0  0  0  0  0  0
   -1.9110   -1.8250   -1.7600 C   0  0  0  0  0  0  0  0  0  0  0  0
    3.7830    0.8500    2.8470 O   0  0  0  0  0  0  0  0  0  0  0  0
    0.6640    2.0300    1.5520 O   0  0  0  0  0  0  0  0  0  0  0  0
    3.0450    2.9490    3.1520 C   0  0  0  0  0  0  0  0  0  0  0  0
    4.7060    1.5240    3.5770 C   0  0  0  0  0  0  0  0  0  0  0  0
    4.3010    2.8190    3.7930 C   0  0  0  0  0  0  0  0  0  0  0  0
   -2.4860   -3.2470   -1.7980 C   0  0  0  0  0  0  0  0  0  0  0  0
   -1.8650   -5.6380   -2.2420 C   0  0  0  0  0  0  0  0  0  0  0  0
   -3.1620    3.3360   -0.3480 C   0  0  0  0  0  0  0  0  0  0  0  0
   -1.2390    4.2090   -2.2130 C   0  0  0  0  0  0  0  0  0  0  0  0
   -0.7870   -6.5520   -2.7980 C   0  0  0  0  0  0  0  0  0  0  0  0
   -3.2950    4.5750   -0.9810 C   0  0  0  0  0  0  0  0  0  0  0  0
   -2.3450    5.0040   -1.9020 C   0  0  0  0  0  0  0  0  0  0  0  0
    2.5080   -0.5670    1.7950 H   0  0  0  0  0  0  0  0  0  0  0  0
   -0.8410   -3.9650   -2.7920 H   0  0  0  0  0  0  0  0  0  0  0  0
   -0.8340   -4.7370    0.0510 H   0  0  0  0  0  0  0  0  0  0  0  0
    0.5360   -4.7310   -1.0850 H   0  0  0  0  0  0  0  0  0  0  0  0
   -1.5700   -1.5570   -2.7600 H   0  0  0  0  0  0  0  0  0  0  0  0
   -2.6960   -1.1370   -1.4480 H   0  0  0  0  0  0  0  0  0  0  0  0
    2.4250    3.8320    3.1080 H   0  0  0  0  0  0  0  0  0  0  0  0
    5.6320    1.1010    3.9390 H   0  0  0  0  0  0  0  0  0  0  0  0
    4.8330    3.5830    4.3410 H   0  0  0  0  0  0  0  0  0  0  0  0
   -3.0110   -3.4510   -0.8650 H   0  0  0  0  0  0  0  0  0  0  0  0
   -3.1810   -3.3350   -2.6330 H   0  0  0  0  0  0  0  0  0  0  0  0
   -2.6800   -5.5780   -2.9640 H   0  0  0  0  0  0  0  0  0  0  0  0
   -2.2370   -6.0620   -1.3090 H   0  0  0  0  0  0  0  0  0  0  0  0
   -3.9040    3.0080    0.3650 H   0  0  0  0  0  0  0  0  0  0  0  0
   -0.5030    4.5390   -2.9310 H   0  0  0  0  0  0  0  0  0  0  0  0
   -0.4060   -6.1390   -3.7320 H   0  0  0  0  0  0  0  0  0  0  0  0
   -1.2080   -7.5400   -2.9830 H   0  0  0  0  0  0  0  0  0  0  0  0
    0.0270   -6.6330   -2.0780 H   0  0  0  0  0  0  0  0  0  0  0  0
   -4.1420    5.2050   -0.7530 H   0  0  0  0  0  0  0  0  0  0  0  0
   -2.4640    5.9640   -2.3830 H   0  0  0  0  0  0  0  0  0  0  0  0
  1  2  2  0  0  0  0
  1  3  1  0  0  0  0
  1  4  1  0  0  0  0
  2  7  1  0  0  0  0
  2  9  1  0  0  0  0
  3  6  2  0  0  0  0
  3  8  1  0  0  0  0
  4  5  2  0  0  0  0
  4 16  1  0  0  0  0
  5  7  1  0  0  0  0
  5 15  1  0  0  0  0
  6 12  1  0  0  0  0
  8 13  1  0  0  0  0
  9 10  1  0  0  0  0
  9 29  1  0  0  0  0
 10 11  1  0  0  0  0
 10 18  2  0  0  0  0
 11 17  1  0  0  0  0
 11 19  2  0  0  0  0
 12 13  2  0  0  0  0
 12 24  1  0  0  0  0
 13 25  1  0  0  0  0
 14 15  1  0  0  0  0
 14 22  1  0  0  0  0
 14 23  1  0  0  0  0
 14 30  1  0  0  0  0
 15 31  1  0  0  0  0
 15 32  1  0  0  0  0
 16 22  1  0  0  0  0
 16 33  1  0  0  0  0
 16 34  1  0  0  0  0
 17 20  1  0  0  0  0
 19 21  1  0  0  0  0
 19 35  1  0  0  0  0
 20 21  2  0  0  0  0
 20 36  1  0  0  0  0
 21 37  1  0  0  0  0
 22 38  1  0  0  0  0
 22 39  1  0  0  0  0
 23 26  1  0  0  0  0
 23 40  1  0  0  0  0
 23 41  1  0  0  0  0
 24 27  2  0  0  0  0
 24 42  1  0  0  0  0
 25 28  2  0  0  0  0
 25 43  1  0  0  0  0
 26 44  1  0  0  0  0
 26 45  1  0  0  0  0
 26 46  1  0  0  0  0
 27 28  1  0  0  0  0
 27 47  1  0  0  0  0
 28 48  1  0  0  0  0
M  CHG  1  14   1
M  END
>  <$CLUSTER>
408

>  <INDEX>
271824

$$$$
Life Chemicals F0529-0304
  MOE2020           3D

 39 41  0  0  0  0  0  0  0  0999 V2000
    1.2360   -2.0770   -1.2030 C   0  0  0  0  0  0  0  0  0  0  0  0
    1.4300   -0.4350   -0.7590 S   0  0  0  0  0  0  0  0  0  0  0  0
   -0.2220   -0.4340   -0.3220 C   0  0  0  0  0  0  0  0  0  0  0  0
    0.0230   -2.5510   -1.0250 N   0  0  0  0  0  0  0  0  0  0  0  0
    2.3660   -2.8550   -1.7550 C   0  0  0  0  0  0  0  0  0  0  0  0
   -0.8270   -1.5900   -0.5100 N   0  0  0  0  0  0  0  0  0  0  0  0
   -0.8590    0.6840    0.1840 N   0  0  0  0  0  0  0  0  0  0  0  0
   -0.2920    1.9310    0.4100 C   0  0  0  0  0  0  0  0  0  0  0  0
    2.2150   -3.6180   -2.9330 C   0  0  0  0  0  0  0  0  0  0  0  0
   -1.3120    2.8930    0.9700 C   0  0  0  0  0  0  0  0  0  0  0  0
   -0.7640    4.2860    1.2470 C   0  0  0  0  0  0  0  0  0  0  0  0
    3.6060   -2.8630   -1.0910 C   0  0  0  0  0  0  0  0  0  0  0  0
   -0.1110    4.6540    2.7760 S   0  0  0  0  0  0  0  0  0  0  0  0
    3.3000   -4.3570   -3.4230 C   0  0  0  0  0  0  0  0  0  0  0  0
    0.2910    6.2390    2.2730 C   0  0  0  0  0  0  0  0  0  0  0  0
    0.8640    2.2920    0.2130 O   0  0  0  0  0  0  0  0  0  0  0  0
   -0.6630    5.3260    0.3630 C   0  0  0  0  0  0  0  0  0  0  0  0
   -0.0570    6.4680    0.9610 C   0  0  0  0  0  0  0  0  0  0  0  0
    4.5250   -4.3470   -2.7530 C   0  0  0  0  0  0  0  0  0  0  0  0
    4.6790   -3.6030   -1.5890 C   0  0  0  0  0  0  0  0  0  0  0  0
    0.9840   -3.5650   -3.5420 O   0  0  0  0  0  0  0  0  0  0  0  0
    5.5010   -5.1180   -3.3440 O   0  0  0  0  0  0  0  0  0  0  0  0
    0.7950   -4.3460   -4.7160 C   0  0  0  0  0  0  0  0  0  0  0  0
    6.7710   -5.1460   -2.7020 C   0  0  0  0  0  0  0  0  0  0  0  0
   -1.8380    0.5830    0.4130 H   0  0  0  0  0  0  0  0  0  0  0  0
   -1.6930    2.4820    1.9050 H   0  0  0  0  0  0  0  0  0  0  0  0
   -2.1280    2.9820    0.2530 H   0  0  0  0  0  0  0  0  0  0  0  0
    3.7290   -2.2890   -0.1840 H   0  0  0  0  0  0  0  0  0  0  0  0
    3.1880   -4.9390   -4.3260 H   0  0  0  0  0  0  0  0  0  0  0  0
    0.7620    6.9730    2.9100 H   0  0  0  0  0  0  0  0  0  0  0  0
   -1.0010    5.2860   -0.6620 H   0  0  0  0  0  0  0  0  0  0  0  0
    0.1100    7.4030    0.4460 H   0  0  0  0  0  0  0  0  0  0  0  0
    5.6270   -3.5980   -1.0710 H   0  0  0  0  0  0  0  0  0  0  0  0
   -0.2210   -4.2060   -5.0860 H   0  0  0  0  0  0  0  0  0  0  0  0
    0.9540   -5.3990   -4.4820 H   0  0  0  0  0  0  0  0  0  0  0  0
    1.5070   -4.0320   -5.4800 H   0  0  0  0  0  0  0  0  0  0  0  0
    7.4490   -5.7870   -3.2650 H   0  0  0  0  0  0  0  0  0  0  0  0
    6.6580   -5.5360   -1.6910 H   0  0  0  0  0  0  0  0  0  0  0  0
    7.1780   -4.1360   -2.6580 H   0  0  0  0  0  0  0  0  0  0  0  0
  1  2  1  0  0  0  0
  1  4  2  0  0  0  0
  1  5  1  0  0  0  0
  2  3  1  0  0  0  0
  3  6  2  0  0  0  0
  3  7  1  0  0  0  0
  4  6  1  0  0  0  0
  5  9  2  0  0  0  0
  5 12  1  0  0  0  0
  7  8  1  0  0  0  0
  7 25  1  0  0  0  0
  8 10  1  0  0  0  0
  8 16  2  0  0  0  0
  9 14  1  0  0  0  0
  9 21  1  0  0  0  0
 10 11  1  0  0  0  0
 10 26  1  0  0  0  0
 10 27  1  0  0  0  0
 11 13  1  0  0  0  0
 11 17  2  0  0  0  0
 12 20  2  0  0  0  0
 12 28  1  0  0  0  0
 13 15  1  0  0  0  0
 14 19  2  0  0  0  0
 14 29  1  0  0  0  0
 15 18  2  0  0  0  0
 15 30  1  0  0  0  0
 17 18  1  0  0  0  0
 17 31  1  0  0  0  0
 18 32  1  0  0  0  0
 19 20  1  0  0  0  0
 19 22  1  0  0  0  0
 20 33  1  0  0  0  0
 21 23  1  0  0  0  0
 22 24  1  0  0  0  0
 23 34  1  0  0  0  0
 23 35  1  0  0  0  0
 23 36  1  0  0  0  0
 24 37  1  0  0  0  0
 24 38  1  0  0  0  0
 24 39  1  0  0  0  0
M  END
>  <$CLUSTER>
409

>  <INDEX>
271975

$$$$
Life Chemicals F0541-0321
  MOE2020           3D

 43 46  0  0  0  0  0  0  0  0999 V2000
    0.8850    0.0400    0.2850 C   0  0  0  0  0  0  0  0  0  0  0  0
    1.9920   -0.6760   -0.1170 C   0  0  0  0  0  0  0  0  0  0  0  0
   -0.1350   -0.3280   -0.6160 N   0  0  0  0  0  0  0  0  0  0  0  0
    1.6110   -1.3010   -1.3120 C   0  0  0  0  0  0  0  0  0  0  0  0
    0.3630   -1.0450   -1.6710 N   0  0  0  0  0  0  0  0  0  0  0  0
    4.0940   -1.9020   -1.0280 S   0  0  0  0  0  0  0  0  0  0  0  0
    0.6910    0.9900    1.2740 N   0  0  0  0  0  0  0  0  0  0  0  0
    2.6070   -2.0890   -2.0560 C   0  0  0  0  0  0  0  0  0  0  0  0
    1.6060    1.2910    2.2710 C   0  0  0  0  0  0  0  0  0  0  0  0
    3.4000   -0.8520    0.2910 C   0  0  0  0  0  0  0  0  0  0  0  0
   -1.5390   -0.0810   -0.5650 C   0  0  0  0  0  0  0  0  0  0  0  0
    5.0670   -1.1250   -1.7690 O   0  0  0  0  0  0  0  0  0  0  0  0
    4.4230   -3.1940   -0.4600 O   0  0  0  0  0  0  0  0  0  0  0  0
    1.1040    2.4110    3.1480 C   0  0  0  0  0  0  0  0  0  0  0  0
    2.6820    0.7510    2.4990 O   0  0  0  0  0  0  0  0  0  0  0  0
   -2.2870   -0.1360   -1.7520 C   0  0  0  0  0  0  0  0  0  0  0  0
   -2.2000    0.1540    0.6460 C   0  0  0  0  0  0  0  0  0  0  0  0
    2.1110    3.1540    3.8420 C   0  0  0  0  0  0  0  0  0  0  0  0
   -0.2180    2.7170    3.3590 C   0  0  0  0  0  0  0  0  0  0  0  0
    0.3920    4.5060    4.8710 C   0  0  0  0  0  0  0  0  0  0  0  0
   -0.5850    3.7630    4.2090 C   0  0  0  0  0  0  0  0  0  0  0  0
    1.7390    4.2000    4.6890 C   0  0  0  0  0  0  0  0  0  0  0  0
   -3.6660    0.0880   -1.7280 C   0  0  0  0  0  0  0  0  0  0  0  0
   -3.5800    0.3750    0.6630 C   0  0  0  0  0  0  0  0  0  0  0  0
   -4.3110    0.3490   -0.5220 C   0  0  0  0  0  0  0  0  0  0  0  0
   -0.0750    5.7810    5.8970 Cl  0  0  0  0  0  0  0  0  0  0  0  0
   -5.7840    0.5980   -0.5020 C   0  0  0  0  0  0  0  0  0  0  0  0
   -0.1800    1.5010    1.2680 H   0  0  0  0  0  0  0  0  0  0  0  0
    2.7640   -1.6840   -3.0560 H   0  0  0  0  0  0  0  0  0  0  0  0
    2.3080   -3.1340   -2.1310 H   0  0  0  0  0  0  0  0  0  0  0  0
    3.4660   -1.3480    1.2600 H   0  0  0  0  0  0  0  0  0  0  0  0
    3.9150    0.1070    0.3380 H   0  0  0  0  0  0  0  0  0  0  0  0
   -1.7940   -0.3530   -2.6880 H   0  0  0  0  0  0  0  0  0  0  0  0
   -1.6420    0.1650    1.5710 H   0  0  0  0  0  0  0  0  0  0  0  0
    3.1540    2.9070    3.7110 H   0  0  0  0  0  0  0  0  0  0  0  0
   -0.9840    2.1410    2.8610 H   0  0  0  0  0  0  0  0  0  0  0  0
   -1.6290    3.9970    4.3540 H   0  0  0  0  0  0  0  0  0  0  0  0
    2.4960    4.7730    5.2040 H   0  0  0  0  0  0  0  0  0  0  0  0
   -4.2330    0.0590   -2.6470 H   0  0  0  0  0  0  0  0  0  0  0  0
   -4.0820    0.5670    1.6000 H   0  0  0  0  0  0  0  0  0  0  0  0
   -6.1770    0.5370   -1.5170 H   0  0  0  0  0  0  0  0  0  0  0  0
   -5.9790    1.5910   -0.0960 H   0  0  0  0  0  0  0  0  0  0  0  0
   -6.2710   -0.1520    0.1220 H   0  0  0  0  0  0  0  0  0  0  0  0
  1  2  2  0  0  0  0
  1  3  1  0  0  0  0
  1  7  1  0  0  0  0
  2  4  1  0  0  0  0
  2 10  1  0  0  0  0
  3  5  1  0  0  0  0
  3 11  1  0  0  0  0
  4  5  2  0  0  0  0
  4  8  1  0  0  0  0
  6  8  1  0  0  0  0
  6 10  1  0  0  0  0
  6 12  2  0  0  0  0
  6 13  2  0  0  0  0
  7  9  1  0  0  0  0
  7 28  1  0  0  0  0
  8 29  1  0  0  0  0
  8 30  1  0  0  0  0
  9 14  1  0  0  0  0
  9 15  2  0  0  0  0
 10 31  1  0  0  0  0
 10 32  1  0  0  0  0
 11 16  2  0  0  0  0
 11 17  1  0  0  0  0
 14 18  1  0  0  0  0
 14 19  2  0  0  0  0
 16 23  1  0  0  0  0
 16 33  1  0  0  0  0
 17 24  2  0  0  0  0
 17 34  1  0  0  0  0
 18 22  2  0  0  0  0
 18 35  1  0  0  0  0
 19 21  1  0  0  0  0
 19 36  1  0  0  0  0
 20 21  2  0  0  0  0
 20 22  1  0  0  0  0
 20 26  1  0  0  0  0
 21 37  1  0  0  0  0
 22 38  1  0  0  0  0
 23 25  2  0  0  0  0
 23 39  1  0  0  0  0
 24 25  1  0  0  0  0
 24 40  1  0  0  0  0
 25 27  1  0  0  0  0
 27 41  1  0  0  0  0
 27 42  1  0  0  0  0
 27 43  1  0  0  0  0
M  END
>  <$CLUSTER>
410

>  <INDEX>
272647

$$$$
Life Chemicals F0396-0052
  MOE2020           3D

 46 49  0  0  0  0  0  0  0  0999 V2000
    0.9100    0.0670    0.2250 C   0  0  0  0  0  0  0  0  0  0  0  0
   -0.0990   -0.3270   -0.6770 N   0  0  0  0  0  0  0  0  0  0  0  0
    0.4240   -0.9910   -1.7530 N   0  0  0  0  0  0  0  0  0  0  0  0
    2.0460   -0.5880   -0.2020 C   0  0  0  0  0  0  0  0  0  0  0  0
    0.6790    0.9830    1.2390 N   0  0  0  0  0  0  0  0  0  0  0  0
    1.6850   -1.1980   -1.4080 C   0  0  0  0  0  0  0  0  0  0  0  0
    1.5840    1.3030    2.2380 C   0  0  0  0  0  0  0  0  0  0  0  0
   -1.5120   -0.1500   -0.6080 C   0  0  0  0  0  0  0  0  0  0  0  0
    4.2420   -1.7180   -1.1610 S   0  0  0  0  0  0  0  0  0  0  0  0
    1.0360    2.3780    3.1440 C   0  0  0  0  0  0  0  0  0  0  0  0
    2.6860    0.8090    2.4490 O   0  0  0  0  0  0  0  0  0  0  0  0
    3.4610   -0.7100    0.1940 C   0  0  0  0  0  0  0  0  0  0  0  0
    2.7060   -1.9220   -2.1790 C   0  0  0  0  0  0  0  0  0  0  0  0
   -2.2680   -0.2110   -1.7900 C   0  0  0  0  0  0  0  0  0  0  0  0
   -2.1720    0.0220    0.6140 C   0  0  0  0  0  0  0  0  0  0  0  0
    2.0100    3.1510    3.8510 C   0  0  0  0  0  0  0  0  0  0  0  0
   -0.2990    2.6170    3.3670 C   0  0  0  0  0  0  0  0  0  0  0  0
   -4.3020    0.1400   -0.5320 C   0  0  0  0  0  0  0  0  0  0  0  0
    0.2360    4.3970    4.9170 C   0  0  0  0  0  0  0  0  0  0  0  0
   -3.5610    0.1730    0.6480 C   0  0  0  0  0  0  0  0  0  0  0  0
    1.5950    4.1590    4.7230 C   0  0  0  0  0  0  0  0  0  0  0  0
   -0.7090    3.6260    4.2420 C   0  0  0  0  0  0  0  0  0  0  0  0
   -3.6550   -0.0570   -1.7490 C   0  0  0  0  0  0  0  0  0  0  0  0
   -5.6680    0.2650   -0.6210 O   0  0  0  0  0  0  0  0  0  0  0  0
   -0.0430    5.4090    5.8070 O   0  0  0  0  0  0  0  0  0  0  0  0
   -6.3780    0.4610    0.5970 C   0  0  0  0  0  0  0  0  0  0  0  0
   -1.4160    5.6950    6.0490 C   0  0  0  0  0  0  0  0  0  0  0  0
   -0.2150    1.4520    1.2510 H   0  0  0  0  0  0  0  0  0  0  0  0
    3.5500   -1.2200    1.1530 H   0  0  0  0  0  0  0  0  0  0  0  0
    3.9280    0.2730    0.2610 H   0  0  0  0  0  0  0  0  0  0  0  0
    2.8330   -1.4810   -3.1680 H   0  0  0  0  0  0  0  0  0  0  0  0
    2.4430   -2.9750   -2.2810 H   0  0  0  0  0  0  0  0  0  0  0  0
   -1.7740   -0.3780   -2.7360 H   0  0  0  0  0  0  0  0  0  0  0  0
   -1.6060    0.0380    1.5340 H   0  0  0  0  0  0  0  0  0  0  0  0
    3.0630    2.9550    3.7110 H   0  0  0  0  0  0  0  0  0  0  0  0
   -1.0400    2.0170    2.8600 H   0  0  0  0  0  0  0  0  0  0  0  0
   -4.0630    0.3160    1.5940 H   0  0  0  0  0  0  0  0  0  0  0  0
    2.3280    4.7550    5.2470 H   0  0  0  0  0  0  0  0  0  0  0  0
   -1.7620    3.8090    4.3960 H   0  0  0  0  0  0  0  0  0  0  0  0
   -4.2280   -0.0910   -2.6640 H   0  0  0  0  0  0  0  0  0  0  0  0
   -7.4440    0.5440    0.3870 H   0  0  0  0  0  0  0  0  0  0  0  0
   -6.0300    1.3760    1.0770 H   0  0  0  0  0  0  0  0  0  0  0  0
   -6.2030   -0.3860    1.2600 H   0  0  0  0  0  0  0  0  0  0  0  0
   -1.4960    6.5110    6.7670 H   0  0  0  0  0  0  0  0  0  0  0  0
   -1.9070    4.8080    6.4500 H   0  0  0  0  0  0  0  0  0  0  0  0
   -1.8970    5.9850    5.1150 H   0  0  0  0  0  0  0  0  0  0  0  0
  1  2  1  0  0  0  0
  1  4  2  0  0  0  0
  1  5  1  0  0  0  0
  2  3  1  0  0  0  0
  2  8  1  0  0  0  0
  3  6  2  0  0  0  0
  4  6  1  0  0  0  0
  4 12  1  0  0  0  0
  5  7  1  0  0  0  0
  5 28  1  0  0  0  0
  6 13  1  0  0  0  0
  7 10  1  0  0  0  0
  7 11  2  0  0  0  0
  8 14  1  0  0  0  0
  8 15  2  0  0  0  0
  9 12  1  0  0  0  0
  9 13  1  0  0  0  0
 10 16  2  0  0  0  0
 10 17  1  0  0  0  0
 12 29  1  0  0  0  0
 12 30  1  0  0  0  0
 13 31  1  0  0  0  0
 13 32  1  0  0  0  0
 14 23  2  0  0  0  0
 14 33  1  0  0  0  0
 15 20  1  0  0  0  0
 15 34  1  0  0  0  0
 16 21  1  0  0  0  0
 16 35  1  0  0  0  0
 17 22  2  0  0  0  0
 17 36  1  0  0  0  0
 18 20  2  0  0  0  0
 18 23  1  0  0  0  0
 18 24  1  0  0  0  0
 19 21  2  0  0  0  0
 19 22  1  0  0  0  0
 19 25  1  0  0  0  0
 20 37  1  0  0  0  0
 21 38  1  0  0  0  0
 22 39  1  0  0  0  0
 23 40  1  0  0  0  0
 24 26  1  0  0  0  0
 25 27  1  0  0  0  0
 26 41  1  0  0  0  0
 26 42  1  0  0  0  0
 26 43  1  0  0  0  0
 27 44  1  0  0  0  0
 27 45  1  0  0  0  0
 27 46  1  0  0  0  0
M  END
>  <$CLUSTER>
411

>  <INDEX>
269861

$$$$
Maybridge KM 07923
  MOE2020           3D

 32 33  0  0  0  0  0  0  0  0999 V2000
   -0.1980    0.1400   -0.1590 C   0  0  0  0  0  0  0  0  0  0  0  0
   -0.3460    0.9820   -1.3230 N   0  3  0  0  0  0  0  0  0  0  0  0
    0.9910   -0.5680    0.0740 C   0  0  0  0  0  0  0  0  0  0  0  0
    2.0500   -0.6850   -0.8160 N   0  0  0  0  0  0  0  0  0  0  0  0
   -1.2360    0.1540    0.7910 C   0  0  0  0  0  0  0  0  0  0  0  0
    1.1160   -1.2060    1.2660 N   0  0  0  0  0  0  0  0  0  0  0  0
   -1.0810   -0.5210    1.9510 N   0  0  0  0  0  0  0  0  0  0  0  0
    0.2820    2.0480   -1.3260 O   0  5  0  0  0  0  0  0  0  0  0  0
    0.0860   -1.1550    2.1280 C   0  0  0  0  0  0  0  0  0  0  0  0
   -1.1100    0.5840   -2.2120 O   0  0  0  0  0  0  0  0  0  0  0  0
   -2.4090    0.8670    0.5710 N   0  0  0  0  0  0  0  0  0  0  0  0
    3.3740   -0.9430   -0.2620 C   0  0  0  0  0  0  0  0  0  0  0  0
    1.9210   -0.6330   -2.2620 C   0  0  0  0  0  0  0  0  0  0  0  0
   -3.4400    0.9360    1.5790 C   0  0  0  0  0  0  0  0  0  0  0  0
    4.3540    0.1190   -0.7980 C   0  0  0  0  0  0  0  0  0  0  0  0
    2.8930    0.4320   -2.8130 C   0  0  0  0  0  0  0  0  0  0  0  0
    4.3220    0.2410   -2.3180 C   0  0  0  0  0  0  0  0  0  0  0  0
    0.2130   -1.6810    3.0630 H   0  0  0  0  0  0  0  0  0  0  0  0
   -2.5420    1.3450   -0.3090 H   0  0  0  0  0  0  0  0  0  0  0  0
    3.7100   -1.9360   -0.5630 H   0  0  0  0  0  0  0  0  0  0  0  0
    3.3330   -0.8870    0.8260 H   0  0  0  0  0  0  0  0  0  0  0  0
    0.8980   -0.3680   -2.5290 H   0  0  0  0  0  0  0  0  0  0  0  0
    2.1660   -1.6070   -2.6860 H   0  0  0  0  0  0  0  0  0  0  0  0
   -3.1300    0.3670    2.4560 H   0  0  0  0  0  0  0  0  0  0  0  0
   -4.3650    0.5160    1.1820 H   0  0  0  0  0  0  0  0  0  0  0  0
   -3.6040    1.9760    1.8600 H   0  0  0  0  0  0  0  0  0  0  0  0
    5.3640   -0.1530   -0.4920 H   0  0  0  0  0  0  0  0  0  0  0  0
    4.0910    1.0850   -0.3660 H   0  0  0  0  0  0  0  0  0  0  0  0
    2.5450    1.4160   -2.5000 H   0  0  0  0  0  0  0  0  0  0  0  0
    2.8910    0.3750   -3.9020 H   0  0  0  0  0  0  0  0  0  0  0  0
    4.7350   -0.6660   -2.7590 H   0  0  0  0  0  0  0  0  0  0  0  0
    4.9230    1.0980   -2.6210 H   0  0  0  0  0  0  0  0  0  0  0  0
  1  2  1  0  0  0  0
  1  3  2  0  0  0  0
  1  5  1  0  0  0  0
  2  8  1  0  0  0  0
  2 10  2  0  0  0  0
  3  4  1  0  0  0  0
  3  6  1  0  0  0  0
  4 12  1  0  0  0  0
  4 13  1  0  0  0  0
  5  7  2  0  0  0  0
  5 11  1  0  0  0  0
  6  9  2  0  0  0  0
  7  9  1  0  0  0  0
  9 18  1  0  0  0  0
 11 14  1  0  0  0  0
 11 19  1  0  0  0  0
 12 15  1  0  0  0  0
 12 20  1  0  0  0  0
 12 21  1  0  0  0  0
 13 16  1  0  0  0  0
 13 22  1  0  0  0  0
 13 23  1  0  0  0  0
 14 24  1  0  0  0  0
 14 25  1  0  0  0  0
 14 26  1  0  0  0  0
 15 17  1  0  0  0  0
 15 27  1  0  0  0  0
 15 28  1  0  0  0  0
 16 17  1  0  0  0  0
 16 29  1  0  0  0  0
 16 30  1  0  0  0  0
 17 31  1  0  0  0  0
 17 32  1  0  0  0  0
M  CHG  1   2   1
M  CHG  1   8  -1
M  END
>  <$CLUSTER>
412

>  <INDEX>
556653

$$$$
Life Chemicals F0549-0320
  MOE2020           3D

 37 39  0  0  0  0  0  0  0  0999 V2000
   -1.3930   -1.2690    1.7400 N   0  0  0  0  0  0  0  0  0  0  0  0
   -1.7980   -2.3540    2.9760 S   0  0  0  0  0  0  0  0  0  0  0  0
   -0.1150   -1.0320    1.4030 N   0  0  0  0  0  0  0  0  0  0  0  0
   -2.2960   -0.5540    1.0100 C   0  0  0  0  0  0  0  0  0  0  0  0
   -0.2210   -0.1450    0.4090 C   0  0  0  0  0  0  0  0  0  0  0  0
   -1.5580    0.2020    0.1300 C   0  0  0  0  0  0  0  0  0  0  0  0
    0.9740    0.9570   -1.2990 C   0  0  0  0  0  0  0  0  0  0  0  0
    0.9490    0.2830   -0.1120 O   0  0  0  0  0  0  0  0  0  0  0  0
   -0.3680   -3.1010    3.7080 C   0  0  0  0  0  0  0  0  0  0  0  0
   -2.5380   -3.3890    2.2820 O   0  0  0  0  0  0  0  0  0  0  0  0
   -2.4230   -1.5100    3.9750 O   0  0  0  0  0  0  0  0  0  0  0  0
    2.3850    1.3800   -1.5850 C   0  0  0  0  0  0  0  0  0  0  0  0
    0.0390    1.1870   -2.0540 O   0  0  0  0  0  0  0  0  0  0  0  0
   -3.6350   -0.6290    1.1850 N   0  0  0  0  0  0  0  0  0  0  0  0
    0.1830   -4.1980    3.0670 C   0  0  0  0  0  0  0  0  0  0  0  0
    0.2690   -2.4270    4.7250 C   0  0  0  0  0  0  0  0  0  0  0  0
    3.4430    1.1100   -0.7290 C   0  0  0  0  0  0  0  0  0  0  0  0
    2.6140    2.0900   -2.7780 C   0  0  0  0  0  0  0  0  0  0  0  0
    4.9640    2.2410   -2.2340 C   0  0  0  0  0  0  0  0  0  0  0  0
    1.9660   -4.1500    4.7000 C   0  0  0  0  0  0  0  0  0  0  0  0
    4.7330    1.5390   -1.0520 C   0  0  0  0  0  0  0  0  0  0  0  0
    1.3440   -4.7550    3.6070 C   0  0  0  0  0  0  0  0  0  0  0  0
    3.9040    2.5160   -3.0960 C   0  0  0  0  0  0  0  0  0  0  0  0
    1.4300   -2.9890    5.2590 C   0  0  0  0  0  0  0  0  0  0  0  0
    3.0710   -4.7470    5.1520 F   0  0  0  0  0  0  0  0  0  0  0  0
    6.5420    2.7560   -2.6100 Cl  0  0  0  0  0  0  0  0  0  0  0  0
   -1.9210    0.9030   -0.6080 H   0  0  0  0  0  0  0  0  0  0  0  0
   -4.2510   -0.0690    0.6130 H   0  0  0  0  0  0  0  0  0  0  0  0
   -4.0190   -1.2450    1.8870 H   0  0  0  0  0  0  0  0  0  0  0  0
   -0.2710   -4.6100    2.1780 H   0  0  0  0  0  0  0  0  0  0  0  0
   -0.1180   -1.4910    5.0990 H   0  0  0  0  0  0  0  0  0  0  0  0
    3.2690    0.5670    0.1880 H   0  0  0  0  0  0  0  0  0  0  0  0
    1.7930    2.3050   -3.4460 H   0  0  0  0  0  0  0  0  0  0  0  0
    5.5540    1.3260   -0.3840 H   0  0  0  0  0  0  0  0  0  0  0  0
    1.7610   -5.6540    3.1790 H   0  0  0  0  0  0  0  0  0  0  0  0
    4.0810    3.0600   -4.0120 H   0  0  0  0  0  0  0  0  0  0  0  0
    1.9140   -2.5250    6.1060 H   0  0  0  0  0  0  0  0  0  0  0  0
  1  2  1  0  0  0  0
  1  3  1  0  0  0  0
  1  4  1  0  0  0  0
  2  9  1  0  0  0  0
  2 10  2  0  0  0  0
  2 11  2  0  0  0  0
  3  5  2  0  0  0  0
  4  6  2  0  0  0  0
  4 14  1  0  0  0  0
  5  6  1  0  0  0  0
  5  8  1  0  0  0  0
  6 27  1  0  0  0  0
  7  8  1  0  0  0  0
  7 12  1  0  0  0  0
  7 13  2  0  0  0  0
  9 15  2  0  0  0  0
  9 16  1  0  0  0  0
 12 17  2  0  0  0  0
 12 18  1  0  0  0  0
 14 28  1  0  0  0  0
 14 29  1  0  0  0  0
 15 22  1  0  0  0  0
 15 30  1  0  0  0  0
 16 24  2  0  0  0  0
 16 31  1  0  0  0  0
 17 21  1  0  0  0  0
 17 32  1  0  0  0  0
 18 23  2  0  0  0  0
 18 33  1  0  0  0  0
 19 21  2  0  0  0  0
 19 23  1  0  0  0  0
 19 26  1  0  0  0  0
 20 22  2  0  0  0  0
 20 24  1  0  0  0  0
 20 25  1  0  0  0  0
 21 34  1  0  0  0  0
 22 35  1  0  0  0  0
 23 36  1  0  0  0  0
 24 37  1  0  0  0  0
M  END
>  <$CLUSTER>
413

>  <INDEX>
273548

$$$$
Life Chemicals F0558-0073
  MOE2020           3D

 46 48  0  0  0  0  0  0  0  0999 V2000
   -0.1640   -0.4950   -0.2880 C   0  0  0  0  0  0  0  0  0  0  0  0
   -0.7880   -1.6440   -0.4390 N   0  0  0  0  0  0  0  0  0  0  0  0
    0.0880   -2.5860   -0.9400 C   0  0  0  0  0  0  0  0  0  0  0  0
   -0.7950    0.6370    0.1990 N   0  0  0  0  0  0  0  0  0  0  0  0
    1.4870   -0.4910   -0.7360 S   0  0  0  0  0  0  0  0  0  0  0  0
    1.3720   -2.1440   -1.1660 C   0  0  0  0  0  0  0  0  0  0  0  0
   -4.0170    1.1170    0.3390 N   0  0  0  0  0  0  0  0  0  0  0  0
   -4.1980    2.2300   -0.4090 C   0  0  0  0  0  0  0  0  0  0  0  0
   -0.2290    1.8900    0.3940 C   0  0  0  0  0  0  0  0  0  0  0  0
   -0.3650   -3.9550   -1.1970 C   0  0  0  0  0  0  0  0  0  0  0  0
   -5.2220    2.9030   -0.3640 O   0  0  0  0  0  0  0  0  0  0  0  0
    0.9250    2.2490    0.1800 O   0  0  0  0  0  0  0  0  0  0  0  0
   -1.5010   -4.4470   -0.5340 C   0  0  0  0  0  0  0  0  0  0  0  0
    0.3010   -4.7990   -2.0980 C   0  0  0  0  0  0  0  0  0  0  0  0
   -1.9620    3.8840   -0.3970 S   0  0  0  0  0  0  0  0  0  0  0  0
   -1.2800   -6.5770   -1.6570 C   0  0  0  0  0  0  0  0  0  0  0  0
   -2.9820    2.6370   -1.2300 C   0  0  0  0  0  0  0  0  0  0  0  0
   -0.1550   -6.1010   -2.3250 C   0  0  0  0  0  0  0  0  0  0  0  0
   -1.9540   -5.7490   -0.7630 C   0  0  0  0  0  0  0  0  0  0  0  0
   -1.6440   -7.8300   -1.9290 F   0  0  0  0  0  0  0  0  0  0  0  0
   -1.2460    2.8610    0.9420 C   0  0  0  0  0  0  0  0  0  0  0  0
   -2.8170    0.2450    0.3850 C   0  0  0  0  0  0  0  0  0  0  0  0
   -5.1130    0.6070    1.2070 C   0  0  0  0  0  0  0  0  0  0  0  0
   -5.5070   -0.8090    0.7940 C   0  0  0  0  0  0  0  0  0  0  0  0
   -3.1700   -1.1780   -0.0420 C   0  0  0  0  0  0  0  0  0  0  0  0
   -4.3120   -1.7570    0.7870 C   0  0  0  0  0  0  0  0  0  0  0  0
   -1.7720    0.5410    0.4380 H   0  0  0  0  0  0  0  0  0  0  0  0
    2.1800   -2.7460   -1.5540 H   0  0  0  0  0  0  0  0  0  0  0  0
   -2.0310   -3.8120    0.1610 H   0  0  0  0  0  0  0  0  0  0  0  0
    1.1750   -4.4400   -2.6210 H   0  0  0  0  0  0  0  0  0  0  0  0
   -3.3240    3.0450   -2.1810 H   0  0  0  0  0  0  0  0  0  0  0  0
   -2.3720    1.7520   -1.4120 H   0  0  0  0  0  0  0  0  0  0  0  0
    0.3680   -6.7400   -3.0210 H   0  0  0  0  0  0  0  0  0  0  0  0
   -2.8290   -6.1140   -0.2450 H   0  0  0  0  0  0  0  0  0  0  0  0
   -0.7610    3.5130    1.6690 H   0  0  0  0  0  0  0  0  0  0  0  0
   -2.0450    2.3030    1.4310 H   0  0  0  0  0  0  0  0  0  0  0  0
   -2.4260    0.2270    1.4020 H   0  0  0  0  0  0  0  0  0  0  0  0
   -2.0590    0.6430   -0.2890 H   0  0  0  0  0  0  0  0  0  0  0  0
   -5.9790    1.2620    1.1130 H   0  0  0  0  0  0  0  0  0  0  0  0
   -4.7750    0.5980    2.2430 H   0  0  0  0  0  0  0  0  0  0  0  0
   -5.9360   -0.7770   -0.2070 H   0  0  0  0  0  0  0  0  0  0  0  0
   -6.2510   -1.1860    1.4960 H   0  0  0  0  0  0  0  0  0  0  0  0
   -2.2910   -1.8100    0.0800 H   0  0  0  0  0  0  0  0  0  0  0  0
   -3.4670   -1.1670   -1.0910 H   0  0  0  0  0  0  0  0  0  0  0  0
   -4.6160   -2.7130    0.3600 H   0  0  0  0  0  0  0  0  0  0  0  0
   -3.9700   -1.9090    1.8110 H   0  0  0  0  0  0  0  0  0  0  0  0
  1  2  2  0  0  0  0
  1  4  1  0  0  0  0
  1  5  1  0  0  0  0
  2  3  1  0  0  0  0
  3  6  2  0  0  0  0
  3 10  1  0  0  0  0
  4  9  1  0  0  0  0
  4 27  1  0  0  0  0
  5  6  1  0  0  0  0
  6 28  1  0  0  0  0
  7  8  1  0  0  0  0
  7 22  1  0  0  0  0
  7 23  1  0  0  0  0
  8 11  2  0  0  0  0
  8 17  1  0  0  0  0
  9 12  2  0  0  0  0
  9 21  1  0  0  0  0
 10 13  1  0  0  0  0
 10 14  2  0  0  0  0
 13 19  2  0  0  0  0
 13 29  1  0  0  0  0
 14 18  1  0  0  0  0
 14 30  1  0  0  0  0
 15 17  1  0  0  0  0
 15 21  1  0  0  0  0
 16 18  2  0  0  0  0
 16 19  1  0  0  0  0
 16 20  1  0  0  0  0
 17 31  1  0  0  0  0
 17 32  1  0  0  0  0
 18 33  1  0  0  0  0
 19 34  1  0  0  0  0
 21 35  1  0  0  0  0
 21 36  1  0  0  0  0
 22 25  1  0  0  0  0
 22 37  1  0  0  0  0
 22 38  1  0  0  0  0
 23 24  1  0  0  0  0
 23 39  1  0  0  0  0
 23 40  1  0  0  0  0
 24 26  1  0  0  0  0
 24 41  1  0  0  0  0
 24 42  1  0  0  0  0
 25 26  1  0  0  0  0
 25 43  1  0  0  0  0
 25 44  1  0  0  0  0
 26 45  1  0  0  0  0
 26 46  1  0  0  0  0
M  END
>  <$CLUSTER>
414

>  <INDEX>
273915

$$$$
Life Chemicals F0560-0107
  MOE2020           3D

 47 50  0  0  1  0  0  0  0  0999 V2000
    0.6230    0.8470   -0.6380 N   0  0  0  0  0  0  0  0  0  0  0  0
   -0.1600   -0.4590    1.2900 C   0  0  0  0  0  0  0  0  0  0  0  0
    0.1490   -0.4620   -0.1920 C   0  0  3  0  0  0  0  0  0  0  0  0
   -0.1730    1.8380   -1.2010 C   0  0  0  0  0  0  0  0  0  0  0  0
    0.5270    0.2770    2.2730 C   0  0  0  0  0  0  0  0  0  0  0  0
    1.6250    1.1350    2.0940 N   0  0  0  0  0  0  0  0  0  0  0  0
    2.3430    1.5770    1.0250 C   0  0  0  0  0  0  0  0  0  0  0  0
    2.0280    1.1500   -0.3990 C   0  0  0  0  0  0  0  0  0  0  0  0
   -1.2300   -1.2940    1.7020 C   0  0  0  0  0  0  0  0  0  0  0  0
    1.0180   -1.6160   -0.6830 C   0  0  0  0  0  0  0  0  0  0  0  0
    0.2420    2.9300   -1.5810 O   0  0  0  0  0  0  0  0  0  0  0  0
   -1.6120    1.5850   -1.3580 C   0  0  0  0  0  0  0  0  0  0  0  0
    3.3490    2.2600    1.2390 O   0  0  0  0  0  0  0  0  0  0  0  0
    0.1120    0.1610    3.6190 C   0  0  0  0  0  0  0  0  0  0  0  0
    1.8900   -2.3400    0.1560 C   0  0  0  0  0  0  0  0  0  0  0  0
    0.9760   -1.9680   -2.0470 C   0  0  0  0  0  0  0  0  0  0  0  0
   -1.6220   -1.3900    3.0330 C   0  0  0  0  0  0  0  0  0  0  0  0
    2.6120   -3.7100   -1.7000 C   0  0  0  0  0  0  0  0  0  0  0  0
   -0.9490   -0.6580    3.9960 C   0  0  0  0  0  0  0  0  0  0  0  0
    2.6760   -3.3770   -0.3500 C   0  0  0  0  0  0  0  0  0  0  0  0
    1.7630   -3.0050   -2.5490 C   0  0  0  0  0  0  0  0  0  0  0  0
    3.3940   -4.7140   -2.0990 F   0  0  0  0  0  0  0  0  0  0  0  0
   -2.1040    1.2280   -2.6140 C   0  0  0  0  0  0  0  0  0  0  0  0
   -2.4620    1.7270   -0.2620 C   0  0  0  0  0  0  0  0  0  0  0  0
   -2.7600   -2.2780    3.4140 C   0  0  0  0  0  0  0  0  0  0  0  0
   -3.4690    0.9830   -2.7650 C   0  0  0  0  0  0  0  0  0  0  0  0
   -3.8260    1.4790   -0.4210 C   0  0  0  0  0  0  0  0  0  0  0  0
   -4.3270    1.1050   -1.6700 C   0  0  0  0  0  0  0  0  0  0  0  0
   -0.8060   -0.6570   -0.6800 H   0  0  0  0  0  0  0  0  0  0  0  0
    1.9620    1.5150    2.9670 H   0  0  0  0  0  0  0  0  0  0  0  0
    2.3220    1.9570   -1.0700 H   0  0  0  0  0  0  0  0  0  0  0  0
    2.6130    0.2580   -0.6250 H   0  0  0  0  0  0  0  0  0  0  0  0
   -1.7570   -1.8740    0.9590 H   0  0  0  0  0  0  0  0  0  0  0  0
    0.6340    0.7250    4.3780 H   0  0  0  0  0  0  0  0  0  0  0  0
    1.9510   -2.0890    1.2050 H   0  0  0  0  0  0  0  0  0  0  0  0
    0.3230   -1.4260   -2.7150 H   0  0  0  0  0  0  0  0  0  0  0  0
   -1.2450   -0.7220    5.0330 H   0  0  0  0  0  0  0  0  0  0  0  0
    3.3360   -3.9230    0.3080 H   0  0  0  0  0  0  0  0  0  0  0  0
    1.7140   -3.2610   -3.5970 H   0  0  0  0  0  0  0  0  0  0  0  0
   -1.4360    1.1420   -3.4590 H   0  0  0  0  0  0  0  0  0  0  0  0
   -2.0690    2.0250    0.6990 H   0  0  0  0  0  0  0  0  0  0  0  0
   -3.1550   -2.7650    2.5220 H   0  0  0  0  0  0  0  0  0  0  0  0
   -3.5450   -1.6830    3.8810 H   0  0  0  0  0  0  0  0  0  0  0  0
   -2.4110   -3.0350    4.1170 H   0  0  0  0  0  0  0  0  0  0  0  0
   -3.8630    0.6990   -3.7300 H   0  0  0  0  0  0  0  0  0  0  0  0
   -4.4940    1.5760    0.4220 H   0  0  0  0  0  0  0  0  0  0  0  0
   -5.3820    0.9090   -1.7890 H   0  0  0  0  0  0  0  0  0  0  0  0
  1  3  1  0  0  0  0
  1  4  1  0  0  0  0
  1  8  1  0  0  0  0
  2  3  1  0  0  0  0
  2  5  2  0  0  0  0
  2  9  1  0  0  0  0
  3 10  1  0  0  0  0
  3 29  1  0  0  0  0
  4 11  2  0  0  0  0
  4 12  1  0  0  0  0
  5  6  1  0  0  0  0
  5 14  1  0  0  0  0
  6  7  1  0  0  0  0
  6 30  1  0  0  0  0
  7  8  1  0  0  0  0
  7 13  2  0  0  0  0
  8 31  1  0  0  0  0
  8 32  1  0  0  0  0
  9 17  2  0  0  0  0
  9 33  1  0  0  0  0
 10 15  2  0  0  0  0
 10 16  1  0  0  0  0
 12 23  2  0  0  0  0
 12 24  1  0  0  0  0
 14 19  2  0  0  0  0
 14 34  1  0  0  0  0
 15 20  1  0  0  0  0
 15 35  1  0  0  0  0
 16 21  2  0  0  0  0
 16 36  1  0  0  0  0
 17 19  1  0  0  0  0
 17 25  1  0  0  0  0
 18 20  2  0  0  0  0
 18 21  1  0  0  0  0
 18 22  1  0  0  0  0
 19 37  1  0  0  0  0
 20 38  1  0  0  0  0
 21 39  1  0  0  0  0
 23 26  1  0  0  0  0
 23 40  1  0  0  0  0
 24 27  2  0  0  0  0
 24 41  1  0  0  0  0
 25 42  1  0  0  0  0
 25 43  1  0  0  0  0
 25 44  1  0  0  0  0
 26 28  2  0  0  0  0
 26 45  1  0  0  0  0
 27 28  1  0  0  0  0
 27 46  1  0  0  0  0
 28 47  1  0  0  0  0
M  END
>  <$CLUSTER>
415

>  <INDEX>
274004

$$$$
Enamine T0509-8695
  MOE2020           3D

 51 54  0  0  0  0  0  0  0  0999 V2000
   -0.4190    0.1370    0.3690 N   0  0  0  0  0  0  0  0  0  0  0  0
   -1.4370   -0.5710   -0.2680 C   0  0  0  0  0  0  0  0  0  0  0  0
   -0.6740    0.7100    1.6180 C   0  0  0  0  0  0  0  0  0  0  0  0
   -2.5990   -0.8140    0.2550 N   0  0  0  0  0  0  0  0  0  0  0  0
   -1.9880    0.4140    2.2000 C   0  0  0  0  0  0  0  0  0  0  0  0
    0.8930    0.3030   -0.1790 C   0  0  0  0  0  0  0  0  0  0  0  0
   -2.8390   -0.3310    1.5050 C   0  0  0  0  0  0  0  0  0  0  0  0
   -1.2270   -1.0830   -1.9430 S   0  0  0  0  0  0  0  0  0  0  0  0
    0.1000    1.3930    2.2870 O   0  0  0  0  0  0  0  0  0  0  0  0
   -3.6210   -2.4900   -1.7810 C   0  0  0  0  0  0  0  0  0  0  0  0
   -6.4350   -3.6810   -2.9160 C   0  0  0  0  0  0  0  0  0  0  0  0
    1.6460   -0.8090   -0.5900 C   0  0  0  0  0  0  0  0  0  0  0  0
    1.4730    1.5790   -0.2640 C   0  0  0  0  0  0  0  0  0  0  0  0
   -6.7960   -3.9480   -1.6380 O   0  0  0  0  0  0  0  0  0  0  0  0
   -4.2800   -2.5160   -2.9620 N   0  0  0  0  0  0  0  0  0  0  0  0
   -6.7900   -4.6920   -3.7600 C   0  0  0  0  0  0  0  0  0  0  0  0
   -7.4080   -5.1610   -1.6680 C   0  0  0  0  0  0  0  0  0  0  0  0
   -7.4290   -5.6600   -2.9490 C   0  0  0  0  0  0  0  0  0  0  0  0
   -4.1750   -2.2570   -0.7130 O   0  0  0  0  0  0  0  0  0  0  0  0
    2.9340   -0.6430   -1.1040 C   0  0  0  0  0  0  0  0  0  0  0  0
    2.7600    1.7410   -0.7800 C   0  0  0  0  0  0  0  0  0  0  0  0
   -2.1110   -2.6590   -1.9030 C   0  0  0  0  0  0  0  0  0  0  0  0
   -5.7050   -2.3690   -3.1320 C   0  0  0  0  0  0  0  0  0  0  0  0
    3.4880    0.6320   -1.2030 C   0  0  0  0  0  0  0  0  0  0  0  0
   -2.3310    0.9210    3.4970 C   0  0  0  0  0  0  0  0  0  0  0  0
   -4.1490   -0.6160    2.0350 C   0  0  0  0  0  0  0  0  0  0  0  0
    3.3540    3.1100   -0.8760 C   0  0  0  0  0  0  0  0  0  0  0  0
    3.7200   -1.8340   -1.5480 C   0  0  0  0  0  0  0  0  0  0  0  0
   -3.5890    0.6370    4.0290 C   0  0  0  0  0  0  0  0  0  0  0  0
   -4.4970   -0.1300    3.2990 C   0  0  0  0  0  0  0  0  0  0  0  0
    1.2260   -1.8000   -0.5080 H   0  0  0  0  0  0  0  0  0  0  0  0
    0.9190    2.4430    0.0730 H   0  0  0  0  0  0  0  0  0  0  0  0
   -3.7270   -2.6500   -3.7960 H   0  0  0  0  0  0  0  0  0  0  0  0
   -6.6190   -4.7430   -4.8250 H   0  0  0  0  0  0  0  0  0  0  0  0
   -7.8210   -5.6630   -0.8050 H   0  0  0  0  0  0  0  0  0  0  0  0
   -7.8490   -6.6010   -3.2720 H   0  0  0  0  0  0  0  0  0  0  0  0
   -1.7560   -3.2350   -1.0490 H   0  0  0  0  0  0  0  0  0  0  0  0
   -1.8950   -3.2020   -2.8230 H   0  0  0  0  0  0  0  0  0  0  0  0
   -6.0730   -1.6380   -2.4120 H   0  0  0  0  0  0  0  0  0  0  0  0
   -5.9050   -2.0160   -4.1440 H   0  0  0  0  0  0  0  0  0  0  0  0
    4.4810    0.7600   -1.6070 H   0  0  0  0  0  0  0  0  0  0  0  0
   -1.6230    1.5160    4.0550 H   0  0  0  0  0  0  0  0  0  0  0  0
   -4.8540   -1.1990    1.4620 H   0  0  0  0  0  0  0  0  0  0  0  0
    2.6400    3.8430   -0.5000 H   0  0  0  0  0  0  0  0  0  0  0  0
    3.5890    3.3320   -1.9170 H   0  0  0  0  0  0  0  0  0  0  0  0
    4.2660    3.1530   -0.2810 H   0  0  0  0  0  0  0  0  0  0  0  0
    3.1290   -2.7370   -1.3960 H   0  0  0  0  0  0  0  0  0  0  0  0
    4.6400   -1.9000   -0.9670 H   0  0  0  0  0  0  0  0  0  0  0  0
    3.9650   -1.7340   -2.6050 H   0  0  0  0  0  0  0  0  0  0  0  0
   -3.8600    1.0110    5.0050 H   0  0  0  0  0  0  0  0  0  0  0  0
   -5.4710   -0.3490    3.7110 H   0  0  0  0  0  0  0  0  0  0  0  0
  1  2  1  0  0  0  0
  1  3  1  0  0  0  0
  1  6  1  0  0  0  0
  2  4  2  0  0  0  0
  2  8  1  0  0  0  0
  3  5  1  0  0  0  0
  3  9  2  0  0  0  0
  4  7  1  0  0  0  0
  5  7  2  0  0  0  0
  5 25  1  0  0  0  0
  6 12  2  0  0  0  0
  6 13  1  0  0  0  0
  7 26  1  0  0  0  0
  8 22  1  0  0  0  0
 10 15  1  0  0  0  0
 10 19  2  0  0  0  0
 10 22  1  0  0  0  0
 11 14  1  0  0  0  0
 11 16  2  0  0  0  0
 11 23  1  0  0  0  0
 12 20  1  0  0  0  0
 12 31  1  0  0  0  0
 13 21  2  0  0  0  0
 13 32  1  0  0  0  0
 14 17  1  0  0  0  0
 15 23  1  0  0  0  0
 15 33  1  0  0  0  0
 16 18  1  0  0  0  0
 16 34  1  0  0  0  0
 17 18  2  0  0  0  0
 17 35  1  0  0  0  0
 18 36  1  0  0  0  0
 20 24  2  0  0  0  0
 20 28  1  0  0  0  0
 21 24  1  0  0  0  0
 21 27  1  0  0  0  0
 22 37  1  0  0  0  0
 22 38  1  0  0  0  0
 23 39  1  0  0  0  0
 23 40  1  0  0  0  0
 24 41  1  0  0  0  0
 25 29  2  0  0  0  0
 25 42  1  0  0  0  0
 26 30  2  0  0  0  0
 26 43  1  0  0  0  0
 27 44  1  0  0  0  0
 27 45  1  0  0  0  0
 27 46  1  0  0  0  0
 28 47  1  0  0  0  0
 28 48  1  0  0  0  0
 28 49  1  0  0  0  0
 29 30  1  0  0  0  0
 29 50  1  0  0  0  0
 30 51  1  0  0  0  0
M  END
>  <$CLUSTER>
416

>  <INDEX>
421552

$$$$
Life Chemicals F0599-0384
  MOE2020           3D

 37 39  0  0  0  0  0  0  0  0999 V2000
   -0.0240    1.1560   -1.1960 C   0  0  0  0  0  0  0  0  0  0  0  0
    0.1450    0.7450    0.1240 N   0  0  0  0  0  0  0  0  0  0  0  0
    0.4920    2.3490   -1.4140 N   0  0  0  0  0  0  0  0  0  0  0  0
   -0.9820    0.3060   -2.3780 S   0  0  0  0  0  0  0  0  0  0  0  0
   -0.1600   -0.4940    0.7630 C   0  0  0  0  0  0  0  0  0  0  0  0
    0.9480    2.7750   -0.2040 C   0  0  0  0  0  0  0  0  0  0  0  0
    0.6570    1.2450   -4.4080 C   0  0  0  0  0  0  0  0  0  0  0  0
    0.7140    1.8330    0.7650 C   0  0  0  0  0  0  0  0  0  0  0  0
    1.4920    2.2240   -3.9860 N   0  0  0  0  0  0  0  0  0  0  0  0
    1.0260    0.3180   -5.1200 O   0  0  0  0  0  0  0  0  0  0  0  0
   -0.7570    1.3380   -3.8430 C   0  0  0  0  0  0  0  0  0  0  0  0
   -0.4440   -0.5130    2.1370 C   0  0  0  0  0  0  0  0  0  0  0  0
   -0.1360   -1.7030    0.0580 C   0  0  0  0  0  0  0  0  0  0  0  0
    2.8410    2.4940   -4.2570 C   0  0  0  0  0  0  0  0  0  0  0  0
   -0.7270   -2.9130    2.0710 C   0  0  0  0  0  0  0  0  0  0  0  0
    5.5430    3.1000   -4.7390 C   0  0  0  0  0  0  0  0  0  0  0  0
   -0.4240   -2.9060    0.7120 C   0  0  0  0  0  0  0  0  0  0  0  0
   -0.7330   -1.7180    2.7830 C   0  0  0  0  0  0  0  0  0  0  0  0
    7.3220    3.4770   -5.0730 Br  0  0  0  0  0  0  0  0  0  0  0  0
   -0.9980   -4.1020    2.6090 F   0  0  0  0  0  0  0  0  0  0  0  0
    3.6180    1.6670   -5.0740 C   0  0  0  0  0  0  0  0  0  0  0  0
    3.4360    3.6290   -3.6840 C   0  0  0  0  0  0  0  0  0  0  0  0
    4.7790    3.9300   -3.9240 C   0  0  0  0  0  0  0  0  0  0  0  0
    4.9630    1.9710   -5.3120 C   0  0  0  0  0  0  0  0  0  0  0  0
    1.4290    3.7260   -0.0310 H   0  0  0  0  0  0  0  0  0  0  0  0
    0.9310    1.9220    1.8190 H   0  0  0  0  0  0  0  0  0  0  0  0
    1.0610    2.8860   -3.3560 H   0  0  0  0  0  0  0  0  0  0  0  0
   -0.9590    2.3750   -3.5750 H   0  0  0  0  0  0  0  0  0  0  0  0
   -1.4620    1.0160   -4.6090 H   0  0  0  0  0  0  0  0  0  0  0  0
   -0.4390    0.4090    2.6990 H   0  0  0  0  0  0  0  0  0  0  0  0
    0.1060   -1.7070   -0.9950 H   0  0  0  0  0  0  0  0  0  0  0  0
   -0.4110   -3.8340    0.1600 H   0  0  0  0  0  0  0  0  0  0  0  0
   -0.9620   -1.7210    3.8380 H   0  0  0  0  0  0  0  0  0  0  0  0
    3.1780    0.7890   -5.5240 H   0  0  0  0  0  0  0  0  0  0  0  0
    2.8490    4.2770   -3.0500 H   0  0  0  0  0  0  0  0  0  0  0  0
    5.2240    4.8070   -3.4770 H   0  0  0  0  0  0  0  0  0  0  0  0
    5.5550    1.3260   -5.9440 H   0  0  0  0  0  0  0  0  0  0  0  0
  1  2  1  0  0  0  0
  1  3  2  0  0  0  0
  1  4  1  0  0  0  0
  2  5  1  0  0  0  0
  2  8  1  0  0  0  0
  3  6  1  0  0  0  0
  4 11  1  0  0  0  0
  5 12  1  0  0  0  0
  5 13  2  0  0  0  0
  6  8  2  0  0  0  0
  6 25  1  0  0  0  0
  7  9  1  0  0  0  0
  7 10  2  0  0  0  0
  7 11  1  0  0  0  0
  8 26  1  0  0  0  0
  9 14  1  0  0  0  0
  9 27  1  0  0  0  0
 11 28  1  0  0  0  0
 11 29  1  0  0  0  0
 12 18  2  0  0  0  0
 12 30  1  0  0  0  0
 13 17  1  0  0  0  0
 13 31  1  0  0  0  0
 14 21  1  0  0  0  0
 14 22  2  0  0  0  0
 15 17  2  0  0  0  0
 15 18  1  0  0  0  0
 15 20  1  0  0  0  0
 16 19  1  0  0  0  0
 16 23  2  0  0  0  0
 16 24  1  0  0  0  0
 17 32  1  0  0  0  0
 18 33  1  0  0  0  0
 21 24  2  0  0  0  0
 21 34  1  0  0  0  0
 22 23  1  0  0  0  0
 22 35  1  0  0  0  0
 23 36  1  0  0  0  0
 24 37  1  0  0  0  0
M  END
>  <$CLUSTER>
417

>  <INDEX>
276528

$$$$
Life Chemicals F0611-0043
  MOE2020           3D

 44 46  0  0  0  0  0  0  0  0999 V2000
   -1.0210    0.9620   -0.6290 N   0  0  0  0  0  0  0  0  0  0  0  0
   -1.9070    1.0180    0.4340 C   0  0  0  0  0  0  0  0  0  0  0  0
    0.1650    0.2080   -0.6030 C   0  0  0  0  0  0  0  0  0  0  0  0
   -1.5480    0.2320    1.6370 C   0  0  0  0  0  0  0  0  0  0  0  0
   -0.4270   -0.4900    1.6850 C   0  0  0  0  0  0  0  0  0  0  0  0
    0.4850   -0.5280    0.5450 C   0  0  0  0  0  0  0  0  0  0  0  0
   -4.4340   -1.3650    4.9080 C   0  0  0  0  0  0  0  0  0  0  0  0
    1.0110    0.1990   -1.7140 C   0  0  0  0  0  0  0  0  0  0  0  0
    1.6640   -1.2770    0.5740 C   0  0  0  0  0  0  0  0  0  0  0  0
    2.1850   -0.5510   -1.6770 C   0  0  0  0  0  0  0  0  0  0  0  0
    2.5110   -1.2880   -0.5370 C   0  0  0  0  0  0  0  0  0  0  0  0
   -5.4700   -1.1020    5.9670 C   0  0  0  0  0  0  0  0  0  0  0  0
   -2.9440    1.6750    0.4150 O   0  0  0  0  0  0  0  0  0  0  0  0
   -5.1030   -1.4660    7.2940 C   0  0  0  0  0  0  0  0  0  0  0  0
   -3.5520   -2.2070    5.0550 O   0  0  0  0  0  0  0  0  0  0  0  0
   -4.5900   -0.5460    3.8020 N   0  0  0  0  0  0  0  0  0  0  0  0
   -6.0180   -1.2810    8.3330 C   0  0  0  0  0  0  0  0  0  0  0  0
   -2.4880    0.2650    2.8430 C   0  0  0  0  0  0  0  0  0  0  0  0
   -5.5980   -1.6840    9.9330 Cl  0  0  0  0  0  0  0  0  0  0  0  0
   -3.7180   -0.6100    2.6460 C   0  0  0  0  0  0  0  0  0  0  0  0
   -6.7270   -0.6180    5.7140 C   0  0  0  0  0  0  0  0  0  0  0  0
   -7.6390   -0.4370    6.7570 C   0  0  0  0  0  0  0  0  0  0  0  0
    3.7700   -2.0930   -0.5020 C   0  0  0  0  0  0  0  0  0  0  0  0
    3.0970   -0.5650   -2.8620 C   0  0  0  0  0  0  0  0  0  0  0  0
   -7.2840   -0.7660    8.0640 C   0  0  0  0  0  0  0  0  0  0  0  0
   -1.2380    1.4880   -1.4630 H   0  0  0  0  0  0  0  0  0  0  0  0
   -0.1920   -1.0520    2.5760 H   0  0  0  0  0  0  0  0  0  0  0  0
    0.7570    0.7690   -2.5950 H   0  0  0  0  0  0  0  0  0  0  0  0
    1.9200   -1.8470    1.4550 H   0  0  0  0  0  0  0  0  0  0  0  0
   -4.1260   -1.8810    7.4950 H   0  0  0  0  0  0  0  0  0  0  0  0
   -5.3450    0.1250    3.8010 H   0  0  0  0  0  0  0  0  0  0  0  0
   -2.8120    1.2930    3.0060 H   0  0  0  0  0  0  0  0  0  0  0  0
   -1.9450   -0.0880    3.7200 H   0  0  0  0  0  0  0  0  0  0  0  0
   -4.2640   -0.2650    1.7680 H   0  0  0  0  0  0  0  0  0  0  0  0
   -3.4010   -1.6420    2.4950 H   0  0  0  0  0  0  0  0  0  0  0  0
   -7.0150   -0.3750    4.7020 H   0  0  0  0  0  0  0  0  0  0  0  0
   -8.6220   -0.0410    6.5500 H   0  0  0  0  0  0  0  0  0  0  0  0
    3.8530   -2.5960    0.4620 H   0  0  0  0  0  0  0  0  0  0  0  0
    4.6270   -1.4340   -0.6430 H   0  0  0  0  0  0  0  0  0  0  0  0
    3.7480   -2.8360   -1.2990 H   0  0  0  0  0  0  0  0  0  0  0  0
    2.6800    0.0630   -3.6490 H   0  0  0  0  0  0  0  0  0  0  0  0
    3.2000   -1.5860   -3.2290 H   0  0  0  0  0  0  0  0  0  0  0  0
    4.0760   -0.1830   -2.5720 H   0  0  0  0  0  0  0  0  0  0  0  0
   -7.9900   -0.6220    8.8680 H   0  0  0  0  0  0  0  0  0  0  0  0
  1  2  1  0  0  0  0
  1  3  1  0  0  0  0
  1 26  1  0  0  0  0
  2  4  1  0  0  0  0
  2 13  2  0  0  0  0
  3  6  2  0  0  0  0
  3  8  1  0  0  0  0
  4  5  2  0  0  0  0
  4 18  1  0  0  0  0
  5  6  1  0  0  0  0
  5 27  1  0  0  0  0
  6  9  1  0  0  0  0
  7 12  1  0  0  0  0
  7 15  2  0  0  0  0
  7 16  1  0  0  0  0
  8 10  2  0  0  0  0
  8 28  1  0  0  0  0
  9 11  2  0  0  0  0
  9 29  1  0  0  0  0
 10 11  1  0  0  0  0
 10 24  1  0  0  0  0
 11 23  1  0  0  0  0
 12 14  2  0  0  0  0
 12 21  1  0  0  0  0
 14 17  1  0  0  0  0
 14 30  1  0  0  0  0
 16 20  1  0  0  0  0
 16 31  1  0  0  0  0
 17 19  1  0  0  0  0
 17 25  2  0  0  0  0
 18 20  1  0  0  0  0
 18 32  1  0  0  0  0
 18 33  1  0  0  0  0
 20 34  1  0  0  0  0
 20 35  1  0  0  0  0
 21 22  2  0  0  0  0
 21 36  1  0  0  0  0
 22 25  1  0  0  0  0
 22 37  1  0  0  0  0
 23 38  1  0  0  0  0
 23 39  1  0  0  0  0
 23 40  1  0  0  0  0
 24 41  1  0  0  0  0
 24 42  1  0  0  0  0
 24 43  1  0  0  0  0
 25 44  1  0  0  0  0
M  END
>  <$CLUSTER>
418

>  <INDEX>
277158

$$$$
Life Chemicals F0630-0410
  MOE2020           3D

 37 39  0  0  0  0  0  0  0  0999 V2000
   -0.6100    0.3800   -0.6110 N   0  0  0  0  0  0  0  0  0  0  0  0
   -1.6560    0.5330   -1.5360 C   0  0  0  0  0  0  0  0  0  0  0  0
    0.1040   -0.7730   -0.2340 C   0  0  0  0  0  0  0  0  0  0  0  0
    1.0470   -0.6420    0.8880 C   0  0  0  0  0  0  0  0  0  0  0  0
   -2.0690    1.7430   -1.7550 N   0  0  0  0  0  0  0  0  0  0  0  0
   -2.3540   -0.8630   -2.3030 S   0  0  0  0  0  0  0  0  0  0  0  0
    2.4170   -0.7140    0.6320 C   0  0  0  0  0  0  0  0  0  0  0  0
    3.3150   -0.6180    1.6940 C   0  0  0  0  0  0  0  0  0  0  0  0
    0.0480   -1.8740   -0.7700 O   0  0  0  0  0  0  0  0  0  0  0  0
    2.8430   -0.4640    2.9980 C   0  0  0  0  0  0  0  0  0  0  0  0
    0.5640   -0.5040    2.1900 C   0  0  0  0  0  0  0  0  0  0  0  0
   -0.3810    1.6960   -0.0620 C   0  0  0  0  0  0  0  0  0  0  0  0
    1.4700   -0.4090    3.2460 C   0  0  0  0  0  0  0  0  0  0  0  0
   -1.1780    2.6150   -0.9650 C   0  0  0  0  0  0  0  0  0  0  0  0
   -3.5600   -0.1050   -3.4120 C   0  0  0  0  0  0  0  0  0  0  0  0
    4.6410   -0.6640    1.5500 F   0  0  0  0  0  0  0  0  0  0  0  0
   -1.6520    1.9830   -6.6850 C   0  0  0  0  0  0  0  0  0  0  0  0
    3.7710   -0.3770    3.9530 F   0  0  0  0  0  0  0  0  0  0  0  0
   -2.9000    0.6360   -4.5720 C   0  0  0  0  0  0  0  0  0  0  0  0
   -1.0700    2.5520   -7.7410 F   0  0  0  0  0  0  0  0  0  0  0  0
   -1.8970    2.6450   -5.4840 C   0  0  0  0  0  0  0  0  0  0  0  0
   -2.0230    0.6470   -6.8320 C   0  0  0  0  0  0  0  0  0  0  0  0
   -2.5150    1.9740   -4.4270 C   0  0  0  0  0  0  0  0  0  0  0  0
   -2.6410   -0.0280   -5.7770 C   0  0  0  0  0  0  0  0  0  0  0  0
    2.7780   -0.8430   -0.3780 H   0  0  0  0  0  0  0  0  0  0  0  0
   -0.4990   -0.4710    2.3780 H   0  0  0  0  0  0  0  0  0  0  0  0
    0.6790    1.9490   -0.0910 H   0  0  0  0  0  0  0  0  0  0  0  0
   -0.7410    1.7550    0.9650 H   0  0  0  0  0  0  0  0  0  0  0  0
    1.1090   -0.2930    4.2570 H   0  0  0  0  0  0  0  0  0  0  0  0
   -1.7640    3.3150   -0.3700 H   0  0  0  0  0  0  0  0  0  0  0  0
   -0.5100    3.1700   -1.6240 H   0  0  0  0  0  0  0  0  0  0  0  0
   -4.1630    0.6030   -2.8430 H   0  0  0  0  0  0  0  0  0  0  0  0
   -4.2030   -0.8870   -3.8170 H   0  0  0  0  0  0  0  0  0  0  0  0
   -1.6080    3.6790   -5.3700 H   0  0  0  0  0  0  0  0  0  0  0  0
   -1.8320    0.1340   -7.7630 H   0  0  0  0  0  0  0  0  0  0  0  0
   -2.6960    2.4890   -3.4950 H   0  0  0  0  0  0  0  0  0  0  0  0
   -2.9200   -1.0650   -5.8910 H   0  0  0  0  0  0  0  0  0  0  0  0
  1  2  1  0  0  0  0
  1  3  1  0  0  0  0
  1 12  1  0  0  0  0
  2  5  2  0  0  0  0
  2  6  1  0  0  0  0
  3  4  1  0  0  0  0
  3  9  2  0  0  0  0
  4  7  1  0  0  0  0
  4 11  2  0  0  0  0
  5 14  1  0  0  0  0
  6 15  1  0  0  0  0
  7  8  2  0  0  0  0
  7 25  1  0  0  0  0
  8 10  1  0  0  0  0
  8 16  1  0  0  0  0
 10 13  2  0  0  0  0
 10 18  1  0  0  0  0
 11 13  1  0  0  0  0
 11 26  1  0  0  0  0
 12 14  1  0  0  0  0
 12 27  1  0  0  0  0
 12 28  1  0  0  0  0
 13 29  1  0  0  0  0
 14 30  1  0  0  0  0
 14 31  1  0  0  0  0
 15 19  1  0  0  0  0
 15 32  1  0  0  0  0
 15 33  1  0  0  0  0
 17 20  1  0  0  0  0
 17 21  2  0  0  0  0
 17 22  1  0  0  0  0
 19 23  2  0  0  0  0
 19 24  1  0  0  0  0
 21 23  1  0  0  0  0
 21 34  1  0  0  0  0
 22 24  2  0  0  0  0
 22 35  1  0  0  0  0
 23 36  1  0  0  0  0
 24 37  1  0  0  0  0
M  END
>  <$CLUSTER>
419

>  <INDEX>
278776

$$$$
Life Chemicals F0650-0058
  MOE2020           3D

 41 44  0  0  0  0  0  0  0  0999 V2000
    0.4690   -0.1630   -1.0810 C   0  0  0  0  0  0  0  0  0  0  0  0
   -0.0690    0.5100   -0.0260 N   0  0  0  0  0  0  0  0  0  0  0  0
   -0.5650   -1.5800    0.6320 C   0  0  0  0  0  0  0  0  0  0  0  0
    0.2630   -1.8760   -0.9050 S   0  0  0  0  0  0  0  0  0  0  0  0
    1.0140    0.6090   -1.9800 N   0  0  0  0  0  0  0  0  0  0  0  0
   -0.6580   -0.2730    0.9510 C   0  0  0  0  0  0  0  0  0  0  0  0
    0.1400    1.8380   -0.2520 C   0  0  0  0  0  0  0  0  0  0  0  0
    0.8100    1.8740   -1.4640 C   0  0  0  0  0  0  0  0  0  0  0  0
   -1.1470   -2.7320    1.4110 C   0  0  0  0  0  0  0  0  0  0  0  0
   -0.5980   -3.9680    1.1490 N   0  0  0  0  0  0  0  0  0  0  0  0
    1.2470    3.0310   -2.0830 C   0  0  0  0  0  0  0  0  0  0  0  0
   -2.0470   -2.5730    2.2310 O   0  0  0  0  0  0  0  0  0  0  0  0
    0.2260   -4.6410    5.3380 N   0  0  0  0  0  0  0  0  0  0  0  0
   -0.2470   -5.4130    3.0720 C   0  0  0  0  0  0  0  0  0  0  0  0
   -0.9780   -5.1960    1.7600 C   0  0  0  0  0  0  0  0  0  0  0  0
   -1.2950    0.2900    2.1720 C   0  0  0  0  0  0  0  0  0  0  0  0
   -0.3710   -4.5030    4.1200 C   0  0  0  0  0  0  0  0  0  0  0  0
    0.9880   -5.7530    5.5090 C   0  0  0  0  0  0  0  0  0  0  0  0
    0.3460    4.0430   -2.4470 C   0  0  0  0  0  0  0  0  0  0  0  0
    2.6100    3.2000   -2.3770 C   0  0  0  0  0  0  0  0  0  0  0  0
    0.5440   -6.5500    3.2990 C   0  0  0  0  0  0  0  0  0  0  0  0
    1.1740   -6.7220    4.5320 C   0  0  0  0  0  0  0  0  0  0  0  0
    0.7980    5.2000   -3.0860 C   0  0  0  0  0  0  0  0  0  0  0  0
    3.0590    4.3590   -3.0150 C   0  0  0  0  0  0  0  0  0  0  0  0
    2.1540    5.3580   -3.3680 C   0  0  0  0  0  0  0  0  0  0  0  0
   -0.1500    2.6710    0.3710 H   0  0  0  0  0  0  0  0  0  0  0  0
    0.1410   -4.0060    0.4610 H   0  0  0  0  0  0  0  0  0  0  0  0
   -0.7420   -6.0170    1.0830 H   0  0  0  0  0  0  0  0  0  0  0  0
   -2.0510   -5.1800    1.9510 H   0  0  0  0  0  0  0  0  0  0  0  0
   -1.2170    1.3770    2.1540 H   0  0  0  0  0  0  0  0  0  0  0  0
   -0.7890   -0.0970    3.0570 H   0  0  0  0  0  0  0  0  0  0  0  0
   -2.3460    0.0020    2.1990 H   0  0  0  0  0  0  0  0  0  0  0  0
   -0.9820   -3.6280    3.9560 H   0  0  0  0  0  0  0  0  0  0  0  0
    1.4780   -5.8910    6.4610 H   0  0  0  0  0  0  0  0  0  0  0  0
   -0.7060    3.9270   -2.2310 H   0  0  0  0  0  0  0  0  0  0  0  0
    3.3160    2.4280   -2.1080 H   0  0  0  0  0  0  0  0  0  0  0  0
    0.6650   -7.2900    2.5210 H   0  0  0  0  0  0  0  0  0  0  0  0
    1.7910   -7.5880    4.7220 H   0  0  0  0  0  0  0  0  0  0  0  0
    0.0960    5.9730   -3.3620 H   0  0  0  0  0  0  0  0  0  0  0  0
    4.1090    4.4810   -3.2350 H   0  0  0  0  0  0  0  0  0  0  0  0
    2.5030    6.2540   -3.8600 H   0  0  0  0  0  0  0  0  0  0  0  0
  1  2  1  0  0  0  0
  1  4  1  0  0  0  0
  1  5  2  0  0  0  0
  2  6  1  0  0  0  0
  2  7  1  0  0  0  0
  3  4  1  0  0  0  0
  3  6  2  0  0  0  0
  3  9  1  0  0  0  0
  5  8  1  0  0  0  0
  6 16  1  0  0  0  0
  7  8  2  0  0  0  0
  7 26  1  0  0  0  0
  8 11  1  0  0  0  0
  9 10  1  0  0  0  0
  9 12  2  0  0  0  0
 10 15  1  0  0  0  0
 10 27  1  0  0  0  0
 11 19  2  0  0  0  0
 11 20  1  0  0  0  0
 13 17  2  0  0  0  0
 13 18  1  0  0  0  0
 14 15  1  0  0  0  0
 14 17  1  0  0  0  0
 14 21  2  0  0  0  0
 15 28  1  0  0  0  0
 15 29  1  0  0  0  0
 16 30  1  0  0  0  0
 16 31  1  0  0  0  0
 16 32  1  0  0  0  0
 17 33  1  0  0  0  0
 18 22  2  0  0  0  0
 18 34  1  0  0  0  0
 19 23  1  0  0  0  0
 19 35  1  0  0  0  0
 20 24  2  0  0  0  0
 20 36  1  0  0  0  0
 21 22  1  0  0  0  0
 21 37  1  0  0  0  0
 22 38  1  0  0  0  0
 23 25  2  0  0  0  0
 23 39  1  0  0  0  0
 24 25  1  0  0  0  0
 24 40  1  0  0  0  0
 25 41  1  0  0  0  0
M  END
>  <$CLUSTER>
420

>  <INDEX>
280705

$$$$
Life Chemicals F0653-0030
  MOE2020           3D

 49 52  0  0  0  0  0  0  0  0999 V2000
    1.0530    0.0130    0.0930 C   0  0  0  0  0  0  0  0  0  0  0  0
   -0.3660   -0.2410    0.0110 C   0  0  0  0  0  0  0  0  0  0  0  0
    2.1040   -0.6420   -0.4910 N   0  0  0  0  0  0  0  0  0  0  0  0
    1.5210    1.0140    0.8120 N   0  0  0  0  0  0  0  0  0  0  0  0
    3.2280   -0.0010   -0.0600 C   0  0  0  0  0  0  0  0  0  0  0  0
    2.8960    1.0000    0.7210 N   0  0  0  0  0  0  0  0  0  0  0  0
   -0.9240   -1.4810   -0.2040 C   0  0  0  0  0  0  0  0  0  0  0  0
   -1.4330    0.6970    0.1640 C   0  0  0  0  0  0  0  0  0  0  0  0
   -2.2860   -1.3350   -0.1990 N   0  0  0  0  0  0  0  0  0  0  0  0
    4.8520   -0.4310   -0.5090 S   0  0  0  0  0  0  0  0  0  0  0  0
   -2.6250   -0.0200    0.0230 C   0  0  0  0  0  0  0  0  0  0  0  0
    4.5380    1.3670    3.9180 C   0  0  0  0  0  0  0  0  0  0  0  0
    5.8090    0.5630    1.8950 C   0  0  0  0  0  0  0  0  0  0  0  0
    4.8800    1.2900    2.5600 N   0  0  0  0  0  0  0  0  0  0  0  0
    6.5220   -0.2680    2.4460 O   0  0  0  0  0  0  0  0  0  0  0  0
    4.7860    0.6850    6.2330 C   0  0  0  0  0  0  0  0  0  0  0  0
    3.1560    2.3610    5.6580 C   0  0  0  0  0  0  0  0  0  0  0  0
    5.8280    0.7970    0.3860 C   0  0  0  0  0  0  0  0  0  0  0  0
    2.0850   -1.7650   -1.3910 C   0  0  0  0  0  0  0  0  0  0  0  0
    3.5300    2.2590    4.3160 C   0  0  0  0  0  0  0  0  0  0  0  0
    5.1640    0.5800    4.8900 C   0  0  0  0  0  0  0  0  0  0  0  0
    3.7850    1.5730    6.6170 C   0  0  0  0  0  0  0  0  0  0  0  0
   -1.5150    2.0870    0.4030 C   0  0  0  0  0  0  0  0  0  0  0  0
   -3.8870    0.5790    0.1120 C   0  0  0  0  0  0  0  0  0  0  0  0
    2.0800    3.3170    6.0580 C   0  0  0  0  0  0  0  0  0  0  0  0
    5.4630   -0.1640    7.2630 C   0  0  0  0  0  0  0  0  0  0  0  0
   -2.7710    2.6990    0.4930 C   0  0  0  0  0  0  0  0  0  0  0  0
   -3.9380    1.9540    0.3500 C   0  0  0  0  0  0  0  0  0  0  0  0
   -0.3840   -2.4050   -0.3510 H   0  0  0  0  0  0  0  0  0  0  0  0
   -2.9470   -2.0860   -0.3380 H   0  0  0  0  0  0  0  0  0  0  0  0
    4.3280    1.8910    1.9650 H   0  0  0  0  0  0  0  0  0  0  0  0
    5.4210    1.7870    0.1790 H   0  0  0  0  0  0  0  0  0  0  0  0
    6.8590    0.7480    0.0360 H   0  0  0  0  0  0  0  0  0  0  0  0
    1.0540   -2.0750   -1.5630 H   0  0  0  0  0  0  0  0  0  0  0  0
    2.6450   -2.5910   -0.9530 H   0  0  0  0  0  0  0  0  0  0  0  0
    2.5420   -1.4790   -2.3390 H   0  0  0  0  0  0  0  0  0  0  0  0
    3.0380    2.8730    3.5760 H   0  0  0  0  0  0  0  0  0  0  0  0
    5.9420   -0.1120    4.6030 H   0  0  0  0  0  0  0  0  0  0  0  0
    3.4980    1.6500    7.6550 H   0  0  0  0  0  0  0  0  0  0  0  0
   -0.6150    2.6730    0.5150 H   0  0  0  0  0  0  0  0  0  0  0  0
   -4.7900   -0.0020    0.0000 H   0  0  0  0  0  0  0  0  0  0  0  0
    1.7120    3.8400    5.1750 H   0  0  0  0  0  0  0  0  0  0  0  0
    2.4820    4.0400    6.7670 H   0  0  0  0  0  0  0  0  0  0  0  0
    1.2610    2.7680    6.5230 H   0  0  0  0  0  0  0  0  0  0  0  0
    6.2130   -0.7920    6.7810 H   0  0  0  0  0  0  0  0  0  0  0  0
    4.7240   -0.7950    7.7570 H   0  0  0  0  0  0  0  0  0  0  0  0
    5.9460    0.4760    8.0020 H   0  0  0  0  0  0  0  0  0  0  0  0
   -2.8350    3.7620    0.6760 H   0  0  0  0  0  0  0  0  0  0  0  0
   -4.8960    2.4460    0.4240 H   0  0  0  0  0  0  0  0  0  0  0  0
  1  2  1  0  0  0  0
  1  3  1  0  0  0  0
  1  4  2  0  0  0  0
  2  7  2  0  0  0  0
  2  8  1  0  0  0  0
  3  5  1  0  0  0  0
  3 19  1  0  0  0  0
  4  6  1  0  0  0  0
  5  6  2  0  0  0  0
  5 10  1  0  0  0  0
  7  9  1  0  0  0  0
  7 29  1  0  0  0  0
  8 11  2  0  0  0  0
  8 23  1  0  0  0  0
  9 11  1  0  0  0  0
  9 30  1  0  0  0  0
 10 18  1  0  0  0  0
 11 24  1  0  0  0  0
 12 14  1  0  0  0  0
 12 20  2  0  0  0  0
 12 21  1  0  0  0  0
 13 14  1  0  0  0  0
 13 15  2  0  0  0  0
 13 18  1  0  0  0  0
 14 31  1  0  0  0  0
 16 21  2  0  0  0  0
 16 22  1  0  0  0  0
 16 26  1  0  0  0  0
 17 20  1  0  0  0  0
 17 22  2  0  0  0  0
 17 25  1  0  0  0  0
 18 32  1  0  0  0  0
 18 33  1  0  0  0  0
 19 34  1  0  0  0  0
 19 35  1  0  0  0  0
 19 36  1  0  0  0  0
 20 37  1  0  0  0  0
 21 38  1  0  0  0  0
 22 39  1  0  0  0  0
 23 27  2  0  0  0  0
 23 40  1  0  0  0  0
 24 28  2  0  0  0  0
 24 41  1  0  0  0  0
 25 42  1  0  0  0  0
 25 43  1  0  0  0  0
 25 44  1  0  0  0  0
 26 45  1  0  0  0  0
 26 46  1  0  0  0  0
 26 47  1  0  0  0  0
 27 28  1  0  0  0  0
 27 48  1  0  0  0  0
 28 49  1  0  0  0  0
M  END
>  <$CLUSTER>
421

>  <INDEX>
281084

$$$$
Life Chemicals F0653-0278
  MOE2020           3D

 56 59  0  0  0  0  0  0  0  0999 V2000
   -0.1920    0.1260    0.2520 C   0  0  0  0  0  0  0  0  0  0  0  0
    0.1010   -1.0530   -0.5270 C   0  0  0  0  0  0  0  0  0  0  0  0
    0.5410    1.2740    0.4530 N   0  0  0  0  0  0  0  0  0  0  0  0
   -1.3400    0.2250    0.8920 N   0  0  0  0  0  0  0  0  0  0  0  0
   -0.2400    2.0540    1.2720 C   0  0  0  0  0  0  0  0  0  0  0  0
   -1.3660    1.4340    1.5410 N   0  0  0  0  0  0  0  0  0  0  0  0
    1.3410   -1.6420   -0.6210 C   0  0  0  0  0  0  0  0  0  0  0  0
   -0.8150   -1.8390   -1.2910 C   0  0  0  0  0  0  0  0  0  0  0  0
    1.2210   -2.7470   -1.4230 N   0  0  0  0  0  0  0  0  0  0  0  0
    0.2180    3.6290    1.8290 S   0  0  0  0  0  0  0  0  0  0  0  0
   -0.0810   -2.8910   -1.8450 C   0  0  0  0  0  0  0  0  0  0  0  0
   -2.4490    1.1970    4.9790 C   0  0  0  0  0  0  0  0  0  0  0  0
   -1.3000    3.2710    4.1250 C   0  0  0  0  0  0  0  0  0  0  0  0
   -2.1050    2.1860    4.0450 N   0  0  0  0  0  0  0  0  0  0  0  0
   -0.6340    3.5340    5.1190 O   0  0  0  0  0  0  0  0  0  0  0  0
    1.8390    1.6040   -0.1030 C   0  0  0  0  0  0  0  0  0  0  0  0
   -2.2790    0.1620    7.1670 C   0  0  0  0  0  0  0  0  0  0  0  0
   -3.7220   -0.8110    5.5030 C   0  0  0  0  0  0  0  0  0  0  0  0
   -1.2110    4.0820    2.8360 C   0  0  0  0  0  0  0  0  0  0  0  0
   -3.3580    0.1950    4.6050 C   0  0  0  0  0  0  0  0  0  0  0  0
   -1.9130    1.1710    6.2700 C   0  0  0  0  0  0  0  0  0  0  0  0
   -3.1820   -0.8270    6.7850 C   0  0  0  0  0  0  0  0  0  0  0  0
   -2.1960   -1.7630   -1.5770 C   0  0  0  0  0  0  0  0  0  0  0  0
    4.2340    1.7180    0.2560 O   0  0  0  0  0  0  0  0  0  0  0  0
   -0.6560   -3.8690   -2.6650 C   0  0  0  0  0  0  0  0  0  0  0  0
   -4.6910   -1.8680    5.0820 C   0  0  0  0  0  0  0  0  0  0  0  0
   -1.6960    0.1460    8.5450 C   0  0  0  0  0  0  0  0  0  0  0  0
    2.9830    1.3640    0.8700 C   0  0  0  0  0  0  0  0  0  0  0  0
    5.3300    1.5040    1.1530 C   0  0  0  0  0  0  0  0  0  0  0  0
   -2.7850   -2.7340   -2.3960 C   0  0  0  0  0  0  0  0  0  0  0  0
   -2.0240   -3.7710   -2.9300 C   0  0  0  0  0  0  0  0  0  0  0  0
    2.2470   -1.2950   -0.1470 H   0  0  0  0  0  0  0  0  0  0  0  0
    1.9800   -3.3670   -1.6690 H   0  0  0  0  0  0  0  0  0  0  0  0
   -2.5410    2.0650    3.1420 H   0  0  0  0  0  0  0  0  0  0  0  0
    1.8380    2.6570   -0.3850 H   0  0  0  0  0  0  0  0  0  0  0  0
    2.0030    0.9910   -0.9890 H   0  0  0  0  0  0  0  0  0  0  0  0
   -2.1170    3.9130    2.2540 H   0  0  0  0  0  0  0  0  0  0  0  0
   -1.1370    5.1390    3.0930 H   0  0  0  0  0  0  0  0  0  0  0  0
   -3.7810    0.2020    3.6110 H   0  0  0  0  0  0  0  0  0  0  0  0
   -1.2130    1.9340    6.5760 H   0  0  0  0  0  0  0  0  0  0  0  0
   -3.4620   -1.6040    7.4810 H   0  0  0  0  0  0  0  0  0  0  0  0
   -2.7930   -0.9620   -1.1670 H   0  0  0  0  0  0  0  0  0  0  0  0
   -0.0630   -4.6710   -3.0780 H   0  0  0  0  0  0  0  0  0  0  0  0
   -5.0000   -1.6880    4.0520 H   0  0  0  0  0  0  0  0  0  0  0  0
   -5.5640   -1.8410    5.7340 H   0  0  0  0  0  0  0  0  0  0  0  0
   -4.2150   -2.8460    5.1530 H   0  0  0  0  0  0  0  0  0  0  0  0
   -1.0160    0.9900    8.6620 H   0  0  0  0  0  0  0  0  0  0  0  0
   -1.1500   -0.7850    8.6980 H   0  0  0  0  0  0  0  0  0  0  0  0
   -2.4980    0.2210    9.2800 H   0  0  0  0  0  0  0  0  0  0  0  0
    3.0040    0.3110    1.1500 H   0  0  0  0  0  0  0  0  0  0  0  0
    2.8330    1.9740    1.7610 H   0  0  0  0  0  0  0  0  0  0  0  0
    6.2620    1.7810    0.6600 H   0  0  0  0  0  0  0  0  0  0  0  0
    5.3670    0.4520    1.4370 H   0  0  0  0  0  0  0  0  0  0  0  0
    5.1950    2.1160    2.0450 H   0  0  0  0  0  0  0  0  0  0  0  0
   -3.8410   -2.6780   -2.6160 H   0  0  0  0  0  0  0  0  0  0  0  0
   -2.4990   -4.5100   -3.5580 H   0  0  0  0  0  0  0  0  0  0  0  0
  1  2  1  0  0  0  0
  1  3  1  0  0  0  0
  1  4  2  0  0  0  0
  2  7  2  0  0  0  0
  2  8  1  0  0  0  0
  3  5  1  0  0  0  0
  3 16  1  0  0  0  0
  4  6  1  0  0  0  0
  5  6  2  0  0  0  0
  5 10  1  0  0  0  0
  7  9  1  0  0  0  0
  7 32  1  0  0  0  0
  8 11  2  0  0  0  0
  8 23  1  0  0  0  0
  9 11  1  0  0  0  0
  9 33  1  0  0  0  0
 10 19  1  0  0  0  0
 11 25  1  0  0  0  0
 12 14  1  0  0  0  0
 12 20  2  0  0  0  0
 12 21  1  0  0  0  0
 13 14  1  0  0  0  0
 13 15  2  0  0  0  0
 13 19  1  0  0  0  0
 14 34  1  0  0  0  0
 16 28  1  0  0  0  0
 16 35  1  0  0  0  0
 16 36  1  0  0  0  0
 17 21  2  0  0  0  0
 17 22  1  0  0  0  0
 17 27  1  0  0  0  0
 18 20  1  0  0  0  0
 18 22  2  0  0  0  0
 18 26  1  0  0  0  0
 19 37  1  0  0  0  0
 19 38  1  0  0  0  0
 20 39  1  0  0  0  0
 21 40  1  0  0  0  0
 22 41  1  0  0  0  0
 23 30  2  0  0  0  0
 23 42  1  0  0  0  0
 24 28  1  0  0  0  0
 24 29  1  0  0  0  0
 25 31  2  0  0  0  0
 25 43  1  0  0  0  0
 26 44  1  0  0  0  0
 26 45  1  0  0  0  0
 26 46  1  0  0  0  0
 27 47  1  0  0  0  0
 27 48  1  0  0  0  0
 27 49  1  0  0  0  0
 28 50  1  0  0  0  0
 28 51  1  0  0  0  0
 29 52  1  0  0  0  0
 29 53  1  0  0  0  0
 29 54  1  0  0  0  0
 30 31  1  0  0  0  0
 30 55  1  0  0  0  0
 31 56  1  0  0  0  0
M  END
>  <$CLUSTER>
422

>  <INDEX>
281199

$$$$
Life Chemicals F0655-0634
  MOE2020           3D

 60 62  0  0  1  0  0  0  0  0999 V2000
    0.0510    0.8220    0.6960 N   0  3  0  0  0  0  0  0  0  0  0  0
    0.4550    2.2220    1.0390 C   0  0  3  0  0  0  0  0  0  0  0  0
   -0.2100   -1.5620   -1.0230 N   0  0  0  0  0  0  0  0  0  0  0  0
   -0.6810    2.9440    1.8050 C   0  0  3  0  0  0  0  0  0  0  0  0
    0.9650    3.0720   -0.1220 C   0  0  0  0  0  0  0  0  0  0  0  0
   -1.2980    1.8750    2.7190 N   0  0  0  0  0  0  0  0  0  0  0  0
    2.5010    3.7610   -0.1130 S   0  0  0  0  0  0  0  0  0  0  0  0
   -1.8390    2.2280    3.9610 C   0  0  0  0  0  0  0  0  0  0  0  0
   -0.0800   -2.3080   -2.1260 C   0  0  0  0  0  0  0  0  0  0  0  0
   -0.9610    0.7750   -0.4350 C   0  0  0  0  0  0  0  0  0  0  0  0
    1.2470   -0.0640    0.3930 C   0  0  0  0  0  0  0  0  0  0  0  0
   -1.3610   -0.6890   -0.7360 C   0  0  0  0  0  0  0  0  0  0  0  0
    0.7800   -1.5030    0.0660 C   0  0  0  0  0  0  0  0  0  0  0  0
    0.2730    3.3040   -1.2990 C   0  0  0  0  0  0  0  0  0  0  0  0
    2.2750    4.4200   -1.6740 C   0  0  0  0  0  0  0  0  0  0  0  0
    1.0420    4.1010   -2.1950 C   0  0  0  0  0  0  0  0  0  0  0  0
   -1.9280    3.3640    4.4190 O   0  0  0  0  0  0  0  0  0  0  0  0
    1.0470   -3.1260   -2.3490 C   0  0  0  0  0  0  0  0  0  0  0  0
   -1.0620   -2.3240   -3.1390 C   0  0  0  0  0  0  0  0  0  0  0  0
    0.1960   -3.8970   -4.4770 C   0  0  0  0  0  0  0  0  0  0  0  0
   -0.9290   -3.1040   -4.2940 C   0  0  0  0  0  0  0  0  0  0  0  0
    1.1850   -3.9080   -3.5030 C   0  0  0  0  0  0  0  0  0  0  0  0
   -1.8370    3.4300    0.9320 C   0  0  0  0  0  0  0  0  0  0  0  0
    0.4420   -4.6980   -5.5540 O   0  0  0  0  0  0  0  0  0  0  0  0
   -2.3640    1.0260    4.6980 C   0  0  0  0  0  0  0  0  0  0  0  0
   -0.5450   -4.7180   -6.5780 C   0  0  0  0  0  0  0  0  0  0  0  0
   -2.9690    1.3610    6.0500 C   0  0  0  0  0  0  0  0  0  0  0  0
   -3.4910    0.1430    6.7750 C   0  0  0  0  0  0  0  0  0  0  0  0
   -0.4000    0.4520    1.5210 H   0  0  0  0  0  0  0  0  0  0  0  0
    1.3270    2.1080    1.6840 H   0  0  0  0  0  0  0  0  0  0  0  0
   -0.2420    3.8150    2.2910 H   0  0  0  0  0  0  0  0  0  0  0  0
   -1.3140    0.9100    2.4220 H   0  0  0  0  0  0  0  0  0  0  0  0
   -0.5230    1.2190   -1.3290 H   0  0  0  0  0  0  0  0  0  0  0  0
   -1.8490    1.3390   -0.1470 H   0  0  0  0  0  0  0  0  0  0  0  0
    1.9060   -0.0880    1.2610 H   0  0  0  0  0  0  0  0  0  0  0  0
    1.7880    0.3420   -0.4620 H   0  0  0  0  0  0  0  0  0  0  0  0
   -1.8900   -1.0880    0.1300 H   0  0  0  0  0  0  0  0  0  0  0  0
   -2.0240   -0.6950   -1.6010 H   0  0  0  0  0  0  0  0  0  0  0  0
    1.6500   -2.0910   -0.2260 H   0  0  0  0  0  0  0  0  0  0  0  0
    0.3340   -1.9340    0.9620 H   0  0  0  0  0  0  0  0  0  0  0  0
   -0.7180    2.9300   -1.5100 H   0  0  0  0  0  0  0  0  0  0  0  0
    3.0130    5.0160   -2.1900 H   0  0  0  0  0  0  0  0  0  0  0  0
    0.6980    4.4180   -3.1690 H   0  0  0  0  0  0  0  0  0  0  0  0
    1.8300   -3.1500   -1.6050 H   0  0  0  0  0  0  0  0  0  0  0  0
   -1.9450   -1.7140   -3.0190 H   0  0  0  0  0  0  0  0  0  0  0  0
   -1.7040   -3.0890   -5.0460 H   0  0  0  0  0  0  0  0  0  0  0  0
    2.0640   -4.5220   -3.6350 H   0  0  0  0  0  0  0  0  0  0  0  0
   -2.2970    2.5780    0.4310 H   0  0  0  0  0  0  0  0  0  0  0  0
   -1.4600    4.1300    0.1860 H   0  0  0  0  0  0  0  0  0  0  0  0
   -2.5790    3.9290    1.5560 H   0  0  0  0  0  0  0  0  0  0  0  0
   -1.5400    0.3290    4.8520 H   0  0  0  0  0  0  0  0  0  0  0  0
   -3.1310    0.5530    4.0850 H   0  0  0  0  0  0  0  0  0  0  0  0
   -0.2290   -5.3920   -7.3740 H   0  0  0  0  0  0  0  0  0  0  0  0
   -0.6710   -3.7130   -6.9810 H   0  0  0  0  0  0  0  0  0  0  0  0
   -1.4920   -5.0640   -6.1630 H   0  0  0  0  0  0  0  0  0  0  0  0
   -3.7940    2.0570    5.9000 H   0  0  0  0  0  0  0  0  0  0  0  0
   -2.2040    1.8320    6.6670 H   0  0  0  0  0  0  0  0  0  0  0  0
   -4.2580   -0.3390    6.1690 H   0  0  0  0  0  0  0  0  0  0  0  0
   -3.9190    0.4450    7.7310 H   0  0  0  0  0  0  0  0  0  0  0  0
   -2.6720   -0.5550    6.9480 H   0  0  0  0  0  0  0  0  0  0  0  0
  1  2  1  0  0  0  0
  1 10  1  0  0  0  0
  1 11  1  0  0  0  0
  1 29  1  0  0  0  0
  2  4  1  0  0  0  0
  2  5  1  0  0  0  0
  2 30  1  0  0  0  0
  3  9  1  0  0  0  0
  3 12  1  0  0  0  0
  3 13  1  0  0  0  0
  4  6  1  0  0  0  0
  4 23  1  0  0  0  0
  4 31  1  0  0  0  0
  5  7  1  0  0  0  0
  5 14  2  0  0  0  0
  6  8  1  0  0  0  0
  6 32  1  0  0  0  0
  7 15  1  0  0  0  0
  8 17  2  0  0  0  0
  8 25  1  0  0  0  0
  9 18  1  0  0  0  0
  9 19  2  0  0  0  0
 10 12  1  0  0  0  0
 10 33  1  0  0  0  0
 10 34  1  0  0  0  0
 11 13  1  0  0  0  0
 11 35  1  0  0  0  0
 11 36  1  0  0  0  0
 12 37  1  0  0  0  0
 12 38  1  0  0  0  0
 13 39  1  0  0  0  0
 13 40  1  0  0  0  0
 14 16  1  0  0  0  0
 14 41  1  0  0  0  0
 15 16  2  0  0  0  0
 15 42  1  0  0  0  0
 16 43  1  0  0  0  0
 18 22  2  0  0  0  0
 18 44  1  0  0  0  0
 19 21  1  0  0  0  0
 19 45  1  0  0  0  0
 20 21  2  0  0  0  0
 20 22  1  0  0  0  0
 20 24  1  0  0  0  0
 21 46  1  0  0  0  0
 22 47  1  0  0  0  0
 23 48  1  0  0  0  0
 23 49  1  0  0  0  0
 23 50  1  0  0  0  0
 24 26  1  0  0  0  0
 25 27  1  0  0  0  0
 25 51  1  0  0  0  0
 25 52  1  0  0  0  0
 26 53  1  0  0  0  0
 26 54  1  0  0  0  0
 26 55  1  0  0  0  0
 27 28  1  0  0  0  0
 27 56  1  0  0  0  0
 27 57  1  0  0  0  0
 28 58  1  0  0  0  0
 28 59  1  0  0  0  0
 28 60  1  0  0  0  0
M  CHG  1   1   1
M  END
>  <$CLUSTER>
423

>  <INDEX>
281823

$$$$
Life Chemicals F0687-0356
  MOE2020           3D

 56 59  0  0  1  0  0  0  0  0999 V2000
    0.0510    0.8220    0.6960 N   0  3  0  0  0  0  0  0  0  0  0  0
   -0.2100   -1.5620   -1.0230 N   0  0  0  0  0  0  0  0  0  0  0  0
    3.1050    1.8830   -0.7980 C   0  0  0  0  0  0  0  0  0  0  0  0
    0.4550    2.2220    1.0390 C   0  0  3  0  0  0  0  0  0  0  0  0
    1.7630    2.1020   -0.9890 N   0  0  0  0  0  0  0  0  0  0  0  0
    0.9650    3.0720   -0.1220 C   0  0  0  0  0  0  0  0  0  0  0  0
   -0.0820   -2.3100   -2.1250 C   0  0  0  0  0  0  0  0  0  0  0  0
    3.6710    0.9520   -1.8370 C   0  0  0  0  0  0  0  0  0  0  0  0
   -0.6810    2.9440    1.8050 C   0  0  0  0  0  0  0  0  0  0  0  0
   -0.9610    0.7750   -0.4350 C   0  0  0  0  0  0  0  0  0  0  0  0
    1.2470   -0.0640    0.3930 C   0  0  0  0  0  0  0  0  0  0  0  0
    0.7800   -1.5030    0.0660 C   0  0  0  0  0  0  0  0  0  0  0  0
   -1.3610   -0.6890   -0.7360 C   0  0  0  0  0  0  0  0  0  0  0  0
    3.7890    2.3280    0.1200 O   0  0  0  0  0  0  0  0  0  0  0  0
   -1.5300    3.9070    3.8830 N   0  0  0  0  0  0  0  0  0  0  0  0
   -1.0640   -2.3280   -3.1360 C   0  0  0  0  0  0  0  0  0  0  0  0
    1.0450   -3.1300   -2.3470 C   0  0  0  0  0  0  0  0  0  0  0  0
    4.8490    0.2370   -1.4540 C   0  0  0  0  0  0  0  0  0  0  0  0
    3.1910    0.8300   -3.1130 C   0  0  0  0  0  0  0  0  0  0  0  0
    0.1920   -3.9030   -4.4730 C   0  0  0  0  0  0  0  0  0  0  0  0
    4.9400   -0.7530   -3.6570 C   0  0  0  0  0  0  0  0  0  0  0  0
   -0.9320   -3.1100   -4.2910 C   0  0  0  0  0  0  0  0  0  0  0  0
    1.1810   -3.9130   -3.4990 C   0  0  0  0  0  0  0  0  0  0  0  0
    3.8090   -0.0270   -4.0280 C   0  0  0  0  0  0  0  0  0  0  0  0
    5.4620   -0.6190   -2.3720 C   0  0  0  0  0  0  0  0  0  0  0  0
    0.2430   -4.6160   -5.5960 F   0  0  0  0  0  0  0  0  0  0  0  0
    5.4620   -1.5490   -4.5910 F   0  0  0  0  0  0  0  0  0  0  0  0
   -0.5640    3.2830    3.1590 C   0  0  0  0  0  0  0  0  0  0  0  0
   -1.9000    3.2620    1.1810 C   0  0  0  0  0  0  0  0  0  0  0  0
   -2.6830    4.2020    3.2330 C   0  0  0  0  0  0  0  0  0  0  0  0
   -2.9090    3.9020    1.8980 C   0  0  0  0  0  0  0  0  0  0  0  0
   -0.4000    0.4520    1.5210 H   0  0  0  0  0  0  0  0  0  0  0  0
    1.3270    2.1080    1.6840 H   0  0  0  0  0  0  0  0  0  0  0  0
    1.2880    1.6040   -1.7280 H   0  0  0  0  0  0  0  0  0  0  0  0
    1.6030    3.8770    0.2420 H   0  0  0  0  0  0  0  0  0  0  0  0
    0.1320    3.4950   -0.6840 H   0  0  0  0  0  0  0  0  0  0  0  0
   -0.5230    1.2190   -1.3290 H   0  0  0  0  0  0  0  0  0  0  0  0
   -1.8490    1.3390   -0.1470 H   0  0  0  0  0  0  0  0  0  0  0  0
    1.9060   -0.0880    1.2610 H   0  0  0  0  0  0  0  0  0  0  0  0
    1.7880    0.3420   -0.4620 H   0  0  0  0  0  0  0  0  0  0  0  0
    1.6500   -2.0910   -0.2260 H   0  0  0  0  0  0  0  0  0  0  0  0
    0.3340   -1.9340    0.9620 H   0  0  0  0  0  0  0  0  0  0  0  0
   -1.8900   -1.0880    0.1300 H   0  0  0  0  0  0  0  0  0  0  0  0
   -2.0240   -0.6950   -1.6010 H   0  0  0  0  0  0  0  0  0  0  0  0
   -1.9480   -1.7190   -3.0160 H   0  0  0  0  0  0  0  0  0  0  0  0
    1.8280   -3.1540   -1.6040 H   0  0  0  0  0  0  0  0  0  0  0  0
    5.2610    0.3580   -0.4630 H   0  0  0  0  0  0  0  0  0  0  0  0
    2.3260    1.4020   -3.4160 H   0  0  0  0  0  0  0  0  0  0  0  0
   -1.7080   -3.0960   -5.0420 H   0  0  0  0  0  0  0  0  0  0  0  0
    2.0590   -4.5280   -3.6310 H   0  0  0  0  0  0  0  0  0  0  0  0
    3.4090   -0.1270   -5.0260 H   0  0  0  0  0  0  0  0  0  0  0  0
    6.3410   -1.1770   -2.0860 H   0  0  0  0  0  0  0  0  0  0  0  0
    0.3580    3.0310    3.6620 H   0  0  0  0  0  0  0  0  0  0  0  0
   -2.0550    3.0090    0.1420 H   0  0  0  0  0  0  0  0  0  0  0  0
   -3.4680    4.6980    3.7850 H   0  0  0  0  0  0  0  0  0  0  0  0
   -3.8450    4.1580    1.4250 H   0  0  0  0  0  0  0  0  0  0  0  0
  1  4  1  0  0  0  0
  1 10  1  0  0  0  0
  1 11  1  0  0  0  0
  1 32  1  0  0  0  0
  2  7  1  0  0  0  0
  2 12  1  0  0  0  0
  2 13  1  0  0  0  0
  3  5  1  0  0  0  0
  3  8  1  0  0  0  0
  3 14  2  0  0  0  0
  4  6  1  0  0  0  0
  4  9  1  0  0  0  0
  4 33  1  0  0  0  0
  5  6  1  0  0  0  0
  5 34  1  0  0  0  0
  6 35  1  0  0  0  0
  6 36  1  0  0  0  0
  7 16  2  0  0  0  0
  7 17  1  0  0  0  0
  8 18  1  0  0  0  0
  8 19  2  0  0  0  0
  9 28  2  0  0  0  0
  9 29  1  0  0  0  0
 10 13  1  0  0  0  0
 10 37  1  0  0  0  0
 10 38  1  0  0  0  0
 11 12  1  0  0  0  0
 11 39  1  0  0  0  0
 11 40  1  0  0  0  0
 12 41  1  0  0  0  0
 12 42  1  0  0  0  0
 13 43  1  0  0  0  0
 13 44  1  0  0  0  0
 15 28  1  0  0  0  0
 15 30  2  0  0  0  0
 16 22  1  0  0  0  0
 16 45  1  0  0  0  0
 17 23  2  0  0  0  0
 17 46  1  0  0  0  0
 18 25  2  0  0  0  0
 18 47  1  0  0  0  0
 19 24  1  0  0  0  0
 19 48  1  0  0  0  0
 20 22  2  0  0  0  0
 20 23  1  0  0  0  0
 20 26  1  0  0  0  0
 21 24  2  0  0  0  0
 21 25  1  0  0  0  0
 21 27  1  0  0  0  0
 22 49  1  0  0  0  0
 23 50  1  0  0  0  0
 24 51  1  0  0  0  0
 25 52  1  0  0  0  0
 28 53  1  0  0  0  0
 29 31  2  0  0  0  0
 29 54  1  0  0  0  0
 30 31  1  0  0  0  0
 30 55  1  0  0  0  0
 31 56  1  0  0  0  0
M  CHG  1   1   1
M  END
>  <$CLUSTER>
424

>  <INDEX>
287306

$$$$
Life Chemicals F0656-0657
  MOE2020           3D

 43 46  0  0  0  0  0  0  0  0999 V2000
    0.9820    0.3530   -0.2430 C   0  0  0  0  0  0  0  0  0  0  0  0
    1.9870   -0.1660    0.5410 C   0  0  0  0  0  0  0  0  0  0  0  0
   -0.1830   -0.0490    0.3880 N   0  0  0  0  0  0  0  0  0  0  0  0
    0.1540   -0.7740    1.4990 N   0  0  0  0  0  0  0  0  0  0  0  0
    1.4780   -0.8450    1.5920 N   0  0  0  0  0  0  0  0  0  0  0  0
    1.1240    1.0880   -1.3740 N   0  0  0  0  0  0  0  0  0  0  0  0
    3.3660    0.0510    0.1920 C   0  0  0  0  0  0  0  0  0  0  0  0
    3.4740    0.8100   -0.9760 N   0  0  0  0  0  0  0  0  0  0  0  0
    2.3710    1.2820   -1.6880 C   0  0  0  0  0  0  0  0  0  0  0  0
    5.3640    2.4360   -0.9200 C   0  0  0  0  0  0  0  0  0  0  0  0
    4.8390    1.1280   -1.4970 C   0  0  0  0  0  0  0  0  0  0  0  0
   -1.5470    0.1760    0.0600 C   0  0  0  0  0  0  0  0  0  0  0  0
    5.2230    3.5130   -1.7390 N   0  0  0  0  0  0  0  0  0  0  0  0
    4.3100   -0.3800    0.8430 O   0  0  0  0  0  0  0  0  0  0  0  0
    5.8560    2.5310    0.2050 O   0  0  0  0  0  0  0  0  0  0  0  0
   -1.9230    0.9120   -1.0690 C   0  0  0  0  0  0  0  0  0  0  0  0
   -2.5490   -0.3560    0.8900 C   0  0  0  0  0  0  0  0  0  0  0  0
    5.5620    4.8620   -1.5950 C   0  0  0  0  0  0  0  0  0  0  0  0
    6.2090    7.5890   -1.3870 C   0  0  0  0  0  0  0  0  0  0  0  0
   -3.2770    1.1120   -1.3610 C   0  0  0  0  0  0  0  0  0  0  0  0
   -3.8990   -0.1510    0.5920 C   0  0  0  0  0  0  0  0  0  0  0  0
   -4.2630    0.5820   -0.5330 C   0  0  0  0  0  0  0  0  0  0  0  0
    6.4860    8.8920   -1.3640 F   0  0  0  0  0  0  0  0  0  0  0  0
    6.1630    5.3610   -0.4350 C   0  0  0  0  0  0  0  0  0  0  0  0
    5.2910    5.7480   -2.6500 C   0  0  0  0  0  0  0  0  0  0  0  0
    5.6120    7.1030   -2.5460 C   0  0  0  0  0  0  0  0  0  0  0  0
    6.4830    6.7190   -0.3340 C   0  0  0  0  0  0  0  0  0  0  0  0
   -5.7050    0.8020   -0.8530 C   0  0  0  0  0  0  0  0  0  0  0  0
    2.5700    1.8590   -2.5790 H   0  0  0  0  0  0  0  0  0  0  0  0
    4.7930    1.2130   -2.5830 H   0  0  0  0  0  0  0  0  0  0  0  0
    5.5200    0.3220   -1.2240 H   0  0  0  0  0  0  0  0  0  0  0  0
    4.7880    3.2960   -2.6240 H   0  0  0  0  0  0  0  0  0  0  0  0
   -1.1660    1.3270   -1.7170 H   0  0  0  0  0  0  0  0  0  0  0  0
   -2.2740   -0.9270    1.7640 H   0  0  0  0  0  0  0  0  0  0  0  0
   -3.5590    1.6810   -2.2340 H   0  0  0  0  0  0  0  0  0  0  0  0
   -4.6610   -0.5630    1.2370 H   0  0  0  0  0  0  0  0  0  0  0  0
    6.3810    4.6950    0.3870 H   0  0  0  0  0  0  0  0  0  0  0  0
    4.8290    5.3770   -3.5530 H   0  0  0  0  0  0  0  0  0  0  0  0
    5.3970    7.7730   -3.3650 H   0  0  0  0  0  0  0  0  0  0  0  0
    6.9460    7.0960    0.5660 H   0  0  0  0  0  0  0  0  0  0  0  0
   -5.7890    1.3940   -1.7640 H   0  0  0  0  0  0  0  0  0  0  0  0
   -6.1830    1.3330   -0.0300 H   0  0  0  0  0  0  0  0  0  0  0  0
   -6.1960   -0.1600   -0.9980 H   0  0  0  0  0  0  0  0  0  0  0  0
  1  2  2  0  0  0  0
  1  3  1  0  0  0  0
  1  6  1  0  0  0  0
  2  5  1  0  0  0  0
  2  7  1  0  0  0  0
  3  4  1  0  0  0  0
  3 12  1  0  0  0  0
  4  5  2  0  0  0  0
  6  9  2  0  0  0  0
  7  8  1  0  0  0  0
  7 14  2  0  0  0  0
  8  9  1  0  0  0  0
  8 11  1  0  0  0  0
  9 29  1  0  0  0  0
 10 11  1  0  0  0  0
 10 13  1  0  0  0  0
 10 15  2  0  0  0  0
 11 30  1  0  0  0  0
 11 31  1  0  0  0  0
 12 16  2  0  0  0  0
 12 17  1  0  0  0  0
 13 18  1  0  0  0  0
 13 32  1  0  0  0  0
 16 20  1  0  0  0  0
 16 33  1  0  0  0  0
 17 21  2  0  0  0  0
 17 34  1  0  0  0  0
 18 24  1  0  0  0  0
 18 25  2  0  0  0  0
 19 23  1  0  0  0  0
 19 26  2  0  0  0  0
 19 27  1  0  0  0  0
 20 22  2  0  0  0  0
 20 35  1  0  0  0  0
 21 22  1  0  0  0  0
 21 36  1  0  0  0  0
 22 28  1  0  0  0  0
 24 27  2  0  0  0  0
 24 37  1  0  0  0  0
 25 26  1  0  0  0  0
 25 38  1  0  0  0  0
 26 39  1  0  0  0  0
 27 40  1  0  0  0  0
 28 41  1  0  0  0  0
 28 42  1  0  0  0  0
 28 43  1  0  0  0  0
M  END
>  <$CLUSTER>
425

>  <INDEX>
282245

$$$$
Life Chemicals F0656-0633
  MOE2020           3D

 46 49  0  0  0  0  0  0  0  0999 V2000
    0.9820    0.3530   -0.2430 C   0  0  0  0  0  0  0  0  0  0  0  0
    1.9870   -0.1660    0.5410 C   0  0  0  0  0  0  0  0  0  0  0  0
   -0.1830   -0.0490    0.3880 N   0  0  0  0  0  0  0  0  0  0  0  0
    0.1540   -0.7740    1.4990 N   0  0  0  0  0  0  0  0  0  0  0  0
    1.4780   -0.8450    1.5920 N   0  0  0  0  0  0  0  0  0  0  0  0
    1.1240    1.0880   -1.3740 N   0  0  0  0  0  0  0  0  0  0  0  0
    3.4740    0.8100   -0.9760 N   0  0  0  0  0  0  0  0  0  0  0  0
    3.3660    0.0510    0.1920 C   0  0  0  0  0  0  0  0  0  0  0  0
    2.3710    1.2820   -1.6880 C   0  0  0  0  0  0  0  0  0  0  0  0
    5.3640    2.4360   -0.9200 C   0  0  0  0  0  0  0  0  0  0  0  0
    4.8390    1.1280   -1.4970 C   0  0  0  0  0  0  0  0  0  0  0  0
    5.6840    2.4800    0.4450 N   0  0  0  0  0  0  0  0  0  0  0  0
   -1.5470    0.1760    0.0600 C   0  0  0  0  0  0  0  0  0  0  0  0
    4.3100   -0.3800    0.8430 O   0  0  0  0  0  0  0  0  0  0  0  0
    5.4990    3.4170   -1.6500 O   0  0  0  0  0  0  0  0  0  0  0  0
   -1.9230    0.9120   -1.0690 C   0  0  0  0  0  0  0  0  0  0  0  0
   -2.5490   -0.3560    0.8900 C   0  0  0  0  0  0  0  0  0  0  0  0
   -3.2770    1.1120   -1.3610 C   0  0  0  0  0  0  0  0  0  0  0  0
   -3.8990   -0.1510    0.5920 C   0  0  0  0  0  0  0  0  0  0  0  0
   -4.2630    0.5820   -0.5330 C   0  0  0  0  0  0  0  0  0  0  0  0
    6.1590    3.7260    1.0340 C   0  0  0  0  0  0  0  0  0  0  0  0
    5.5550    1.3510    1.3630 C   0  0  0  0  0  0  0  0  0  0  0  0
   -5.7050    0.8020   -0.8530 C   0  0  0  0  0  0  0  0  0  0  0  0
    6.9070    1.0840    2.0450 C   0  0  0  0  0  0  0  0  0  0  0  0
    7.5190    3.4940    1.7120 C   0  0  0  0  0  0  0  0  0  0  0  0
    7.4850    2.3330    2.7010 C   0  0  0  0  0  0  0  0  0  0  0  0
    2.5700    1.8590   -2.5790 H   0  0  0  0  0  0  0  0  0  0  0  0
    4.7930    1.2130   -2.5830 H   0  0  0  0  0  0  0  0  0  0  0  0
    5.5200    0.3220   -1.2240 H   0  0  0  0  0  0  0  0  0  0  0  0
   -1.1660    1.3270   -1.7170 H   0  0  0  0  0  0  0  0  0  0  0  0
   -2.2740   -0.9270    1.7640 H   0  0  0  0  0  0  0  0  0  0  0  0
   -3.5590    1.6810   -2.2340 H   0  0  0  0  0  0  0  0  0  0  0  0
   -4.6610   -0.5630    1.2370 H   0  0  0  0  0  0  0  0  0  0  0  0
    5.4390    4.0740    1.7750 H   0  0  0  0  0  0  0  0  0  0  0  0
    6.2680    4.4780    0.2520 H   0  0  0  0  0  0  0  0  0  0  0  0
    5.2480    0.4650    0.8070 H   0  0  0  0  0  0  0  0  0  0  0  0
    4.8060    1.5830    2.1200 H   0  0  0  0  0  0  0  0  0  0  0  0
   -5.7890    1.3940   -1.7640 H   0  0  0  0  0  0  0  0  0  0  0  0
   -6.1830    1.3330   -0.0300 H   0  0  0  0  0  0  0  0  0  0  0  0
   -6.1960   -0.1600   -0.9980 H   0  0  0  0  0  0  0  0  0  0  0  0
    7.6120    0.7240    1.2950 H   0  0  0  0  0  0  0  0  0  0  0  0
    6.7680    0.3200    2.8100 H   0  0  0  0  0  0  0  0  0  0  0  0
    7.8030    4.4010    2.2460 H   0  0  0  0  0  0  0  0  0  0  0  0
    8.2610    3.2780    0.9430 H   0  0  0  0  0  0  0  0  0  0  0  0
    8.4990    2.1220    3.0410 H   0  0  0  0  0  0  0  0  0  0  0  0
    6.8660    2.6080    3.5550 H   0  0  0  0  0  0  0  0  0  0  0  0
  1  2  2  0  0  0  0
  1  3  1  0  0  0  0
  1  6  1  0  0  0  0
  2  5  1  0  0  0  0
  2  8  1  0  0  0  0
  3  4  1  0  0  0  0
  3 13  1  0  0  0  0
  4  5  2  0  0  0  0
  6  9  2  0  0  0  0
  7  8  1  0  0  0  0
  7  9  1  0  0  0  0
  7 11  1  0  0  0  0
  8 14  2  0  0  0  0
  9 27  1  0  0  0  0
 10 11  1  0  0  0  0
 10 12  1  0  0  0  0
 10 15  2  0  0  0  0
 11 28  1  0  0  0  0
 11 29  1  0  0  0  0
 12 21  1  0  0  0  0
 12 22  1  0  0  0  0
 13 16  2  0  0  0  0
 13 17  1  0  0  0  0
 16 18  1  0  0  0  0
 16 30  1  0  0  0  0
 17 19  2  0  0  0  0
 17 31  1  0  0  0  0
 18 20  2  0  0  0  0
 18 32  1  0  0  0  0
 19 20  1  0  0  0  0
 19 33  1  0  0  0  0
 20 23  1  0  0  0  0
 21 25  1  0  0  0  0
 21 34  1  0  0  0  0
 21 35  1  0  0  0  0
 22 24  1  0  0  0  0
 22 36  1  0  0  0  0
 22 37  1  0  0  0  0
 23 38  1  0  0  0  0
 23 39  1  0  0  0  0
 23 40  1  0  0  0  0
 24 26  1  0  0  0  0
 24 41  1  0  0  0  0
 24 42  1  0  0  0  0
 25 26  1  0  0  0  0
 25 43  1  0  0  0  0
 25 44  1  0  0  0  0
 26 45  1  0  0  0  0
 26 46  1  0  0  0  0
M  END
>  <$CLUSTER>
426

>  <INDEX>
282227

$$$$
Life Chemicals F0662-0414
  MOE2020           3D

 46 49  0  0  0  0  0  0  0  0999 V2000
    0.6820   -0.6270   -0.8700 C   0  0  0  0  0  0  0  0  0  0  0  0
   -0.1390    0.2700   -0.1510 N   0  0  0  0  0  0  0  0  0  0  0  0
    1.2030   -1.6740   -0.1310 N   0  0  0  0  0  0  0  0  0  0  0  0
    0.9760   -1.9380    1.2040 C   0  0  0  0  0  0  0  0  0  0  0  0
   -0.4130    0.1080    1.2200 C   0  0  0  0  0  0  0  0  0  0  0  0
    0.1760   -1.0830    1.8600 C   0  0  0  0  0  0  0  0  0  0  0  0
    1.5590   -3.0640    1.8260 N   0  0  0  0  0  0  0  0  0  0  0  0
    1.7350   -5.8230    2.8050 N   0  0  0  0  0  0  0  0  0  0  0  0
   -0.7150    1.4010   -0.8450 C   0  0  0  0  0  0  0  0  0  0  0  0
    0.9210   -0.5690   -2.0800 O   0  0  0  0  0  0  0  0  0  0  0  0
   -1.0410    0.8830    1.9360 O   0  0  0  0  0  0  0  0  0  0  0  0
    2.3340   -4.0480    1.0690 C   0  0  0  0  0  0  0  0  0  0  0  0
    1.4350   -3.3290    3.2610 C   0  0  0  0  0  0  0  0  0  0  0  0
    0.9430   -4.7910    3.4990 C   0  0  0  0  0  0  0  0  0  0  0  0
    1.8160   -5.4890    1.3690 C   0  0  0  0  0  0  0  0  0  0  0  0
    2.2860   -6.8830    3.3770 C   0  0  0  0  0  0  0  0  0  0  0  0
   -2.0200    1.8370   -0.5590 C   0  0  0  0  0  0  0  0  0  0  0  0
    0.0110    2.1010   -1.8240 C   0  0  0  0  0  0  0  0  0  0  0  0
   -1.8430    3.6080   -2.1950 C   0  0  0  0  0  0  0  0  0  0  0  0
   -0.5490    3.1950   -2.4920 C   0  0  0  0  0  0  0  0  0  0  0  0
   -2.5790    2.9290   -1.2290 C   0  0  0  0  0  0  0  0  0  0  0  0
   -2.5110    4.9400   -3.0170 Cl  0  0  0  0  0  0  0  0  0  0  0  0
    3.0310   -7.8290    2.6440 C   0  0  0  0  0  0  0  0  0  0  0  0
    2.1630   -7.1350    4.7600 C   0  0  0  0  0  0  0  0  0  0  0  0
    2.7450   -8.2540    5.3690 C   0  0  0  0  0  0  0  0  0  0  0  0
    3.6150   -8.9500    3.2480 C   0  0  0  0  0  0  0  0  0  0  0  0
    3.4710   -9.1630    4.6120 C   0  0  0  0  0  0  0  0  0  0  0  0
    1.8140   -2.3120   -0.6200 H   0  0  0  0  0  0  0  0  0  0  0  0
   -0.0460   -1.2750    2.8990 H   0  0  0  0  0  0  0  0  0  0  0  0
    3.3840   -3.9760    1.3540 H   0  0  0  0  0  0  0  0  0  0  0  0
    2.2320   -3.8440    0.0030 H   0  0  0  0  0  0  0  0  0  0  0  0
    0.7180   -2.6330    3.6950 H   0  0  0  0  0  0  0  0  0  0  0  0
    2.4060   -3.1940    3.7370 H   0  0  0  0  0  0  0  0  0  0  0  0
    0.9830   -4.9940    4.5690 H   0  0  0  0  0  0  0  0  0  0  0  0
   -0.0880   -4.8640    3.1540 H   0  0  0  0  0  0  0  0  0  0  0  0
    0.8190   -5.5890    0.9390 H   0  0  0  0  0  0  0  0  0  0  0  0
    2.4910   -6.2000    0.8910 H   0  0  0  0  0  0  0  0  0  0  0  0
   -2.6000    1.3200    0.1910 H   0  0  0  0  0  0  0  0  0  0  0  0
    1.0170    1.7890   -2.0640 H   0  0  0  0  0  0  0  0  0  0  0  0
    0.0250    3.7200   -3.2410 H   0  0  0  0  0  0  0  0  0  0  0  0
   -3.5850    3.2460   -0.9960 H   0  0  0  0  0  0  0  0  0  0  0  0
    3.1560   -7.6850    1.5810 H   0  0  0  0  0  0  0  0  0  0  0  0
    1.6010   -6.4420    5.3690 H   0  0  0  0  0  0  0  0  0  0  0  0
    2.6280   -8.4100    6.4310 H   0  0  0  0  0  0  0  0  0  0  0  0
    4.1790   -9.6510    2.6500 H   0  0  0  0  0  0  0  0  0  0  0  0
    3.9190  -10.0270    5.0790 H   0  0  0  0  0  0  0  0  0  0  0  0
  1  2  1  0  0  0  0
  1  3  1  0  0  0  0
  1 10  2  0  0  0  0
  2  5  1  0  0  0  0
  2  9  1  0  0  0  0
  3  4  1  0  0  0  0
  3 28  1  0  0  0  0
  4  6  2  0  0  0  0
  4  7  1  0  0  0  0
  5  6  1  0  0  0  0
  5 11  2  0  0  0  0
  6 29  1  0  0  0  0
  7 12  1  0  0  0  0
  7 13  1  0  0  0  0
  8 14  1  0  0  0  0
  8 15  1  0  0  0  0
  8 16  1  0  0  0  0
  9 17  1  0  0  0  0
  9 18  2  0  0  0  0
 12 15  1  0  0  0  0
 12 30  1  0  0  0  0
 12 31  1  0  0  0  0
 13 14  1  0  0  0  0
 13 32  1  0  0  0  0
 13 33  1  0  0  0  0
 14 34  1  0  0  0  0
 14 35  1  0  0  0  0
 15 36  1  0  0  0  0
 15 37  1  0  0  0  0
 16 23  1  0  0  0  0
 16 24  2  0  0  0  0
 17 21  2  0  0  0  0
 17 38  1  0  0  0  0
 18 20  1  0  0  0  0
 18 39  1  0  0  0  0
 19 20  2  0  0  0  0
 19 21  1  0  0  0  0
 19 22  1  0  0  0  0
 20 40  1  0  0  0  0
 21 41  1  0  0  0  0
 23 26  2  0  0  0  0
 23 42  1  0  0  0  0
 24 25  1  0  0  0  0
 24 43  1  0  0  0  0
 25 27  2  0  0  0  0
 25 44  1  0  0  0  0
 26 27  1  0  0  0  0
 26 45  1  0  0  0  0
 27 46  1  0  0  0  0
M  END
>  <$CLUSTER>
427

>  <INDEX>
283073

$$$$
Life Chemicals F0670-0178
  MOE2020           3D

 54 57  0  0  1  0  0  0  0  0999 V2000
   -0.0810    0.9150    0.5200 N   0  0  0  0  0  0  0  0  0  0  0  0
   -0.0880    0.9550   -0.8820 C   0  0  0  0  0  0  0  0  0  0  0  0
   -0.9820   -1.9920   -0.4280 S   0  0  0  0  0  0  0  0  0  0  0  0
    0.7360   -0.1010   -1.5990 C   0  0  0  0  0  0  0  0  0  0  0  0
    0.3850   -0.2090    1.2880 C   0  0  0  0  0  0  0  0  0  0  0  0
   -0.0200   -1.3990   -1.8630 C   0  0  3  0  0  0  0  0  0  0  0  0
    0.1220   -1.5460    0.9100 C   0  0  0  0  0  0  0  0  0  0  0  0
    0.3820    3.2630    1.2160 C   0  0  0  0  0  0  0  0  0  0  0  0
   -0.5900    2.0900    1.2420 C   0  0  0  0  0  0  0  0  0  0  0  0
    1.1470    3.3910    2.3310 N   0  0  0  0  0  0  0  0  0  0  0  0
    2.1380    4.3050    2.7000 C   0  0  0  0  0  0  0  0  0  0  0  0
   -0.6670    1.8220   -1.5430 O   0  0  0  0  0  0  0  0  0  0  0  0
    0.5080    4.0110    0.2460 O   0  0  0  0  0  0  0  0  0  0  0  0
   -0.9730   -1.2650   -3.0510 C   0  0  0  0  0  0  0  0  0  0  0  0
    3.5510    6.2290    2.2610 C   0  0  0  0  0  0  0  0  0  0  0  0
    3.7400    5.0730    4.3650 C   0  0  0  0  0  0  0  0  0  0  0  0
    2.5520    5.3380    1.8530 C   0  0  0  0  0  0  0  0  0  0  0  0
    2.7440    4.1820    3.9610 C   0  0  0  0  0  0  0  0  0  0  0  0
    4.1440    6.0970    3.5140 C   0  0  0  0  0  0  0  0  0  0  0  0
    1.1040    0.0140    2.4770 C   0  0  0  0  0  0  0  0  0  0  0  0
    0.6080   -2.6050    1.6950 C   0  0  0  0  0  0  0  0  0  0  0  0
   -0.9940   -2.2810   -4.0610 C   0  0  0  0  0  0  0  0  0  0  0  0
   -1.8450   -0.1750   -3.2430 C   0  0  0  0  0  0  0  0  0  0  0  0
    3.9850    7.3280    1.3440 C   0  0  0  0  0  0  0  0  0  0  0  0
    4.3700    4.9220    5.7120 C   0  0  0  0  0  0  0  0  0  0  0  0
    1.5900   -1.0480    3.2430 C   0  0  0  0  0  0  0  0  0  0  0  0
    1.3490   -2.3570    2.8480 C   0  0  0  0  0  0  0  0  0  0  0  0
   -1.8420   -2.1930   -5.1680 C   0  0  0  0  0  0  0  0  0  0  0  0
   -2.6920   -0.0890   -4.3510 C   0  0  0  0  0  0  0  0  0  0  0  0
   -2.6900   -1.0970   -5.3130 C   0  0  0  0  0  0  0  0  0  0  0  0
    1.6080   -0.3300   -0.9870 H   0  0  0  0  0  0  0  0  0  0  0  0
    1.0610    0.3080   -2.5560 H   0  0  0  0  0  0  0  0  0  0  0  0
    0.7590   -2.1300   -2.0790 H   0  0  0  0  0  0  0  0  0  0  0  0
   -0.7710    1.8100    2.2800 H   0  0  0  0  0  0  0  0  0  0  0  0
   -1.5270    2.4030    0.7810 H   0  0  0  0  0  0  0  0  0  0  0  0
    0.9640    2.6870    3.0320 H   0  0  0  0  0  0  0  0  0  0  0  0
    2.0980    5.4490    0.8790 H   0  0  0  0  0  0  0  0  0  0  0  0
    2.4360    3.3890    4.6260 H   0  0  0  0  0  0  0  0  0  0  0  0
    4.9150    6.7870    3.8240 H   0  0  0  0  0  0  0  0  0  0  0  0
    1.2840    1.0270    2.8040 H   0  0  0  0  0  0  0  0  0  0  0  0
    0.4040   -3.6240    1.4010 H   0  0  0  0  0  0  0  0  0  0  0  0
   -0.3390   -3.1350   -3.9640 H   0  0  0  0  0  0  0  0  0  0  0  0
   -1.8590    0.6190   -2.5110 H   0  0  0  0  0  0  0  0  0  0  0  0
    3.4150    7.2740    0.4170 H   0  0  0  0  0  0  0  0  0  0  0  0
    5.0470    7.2200    1.1240 H   0  0  0  0  0  0  0  0  0  0  0  0
    3.8090    8.2910    1.8230 H   0  0  0  0  0  0  0  0  0  0  0  0
    3.9260    4.0710    6.2280 H   0  0  0  0  0  0  0  0  0  0  0  0
    4.2030    5.8280    6.2950 H   0  0  0  0  0  0  0  0  0  0  0  0
    5.4410    4.7580    5.5960 H   0  0  0  0  0  0  0  0  0  0  0  0
    2.1540   -0.8510    4.1430 H   0  0  0  0  0  0  0  0  0  0  0  0
    1.7340   -3.1790    3.4320 H   0  0  0  0  0  0  0  0  0  0  0  0
   -1.8400   -2.9760   -5.9120 H   0  0  0  0  0  0  0  0  0  0  0  0
   -3.3500    0.7610   -4.4620 H   0  0  0  0  0  0  0  0  0  0  0  0
   -3.3440   -1.0290   -6.1690 H   0  0  0  0  0  0  0  0  0  0  0  0
  1  2  1  0  0  0  0
  1  5  1  0  0  0  0
  1  9  1  0  0  0  0
  2  4  1  0  0  0  0
  2 12  2  0  0  0  0
  3  6  1  0  0  0  0
  3  7  1  0  0  0  0
  4  6  1  0  0  0  0
  4 31  1  0  0  0  0
  4 32  1  0  0  0  0
  5  7  2  0  0  0  0
  5 20  1  0  0  0  0
  6 14  1  0  0  0  0
  6 33  1  0  0  0  0
  7 21  1  0  0  0  0
  8  9  1  0  0  0  0
  8 10  1  0  0  0  0
  8 13  2  0  0  0  0
  9 34  1  0  0  0  0
  9 35  1  0  0  0  0
 10 11  1  0  0  0  0
 10 36  1  0  0  0  0
 11 17  2  0  0  0  0
 11 18  1  0  0  0  0
 14 22  2  0  0  0  0
 14 23  1  0  0  0  0
 15 17  1  0  0  0  0
 15 19  2  0  0  0  0
 15 24  1  0  0  0  0
 16 18  2  0  0  0  0
 16 19  1  0  0  0  0
 16 25  1  0  0  0  0
 17 37  1  0  0  0  0
 18 38  1  0  0  0  0
 19 39  1  0  0  0  0
 20 26  2  0  0  0  0
 20 40  1  0  0  0  0
 21 27  2  0  0  0  0
 21 41  1  0  0  0  0
 22 28  1  0  0  0  0
 22 42  1  0  0  0  0
 23 29  2  0  0  0  0
 23 43  1  0  0  0  0
 24 44  1  0  0  0  0
 24 45  1  0  0  0  0
 24 46  1  0  0  0  0
 25 47  1  0  0  0  0
 25 48  1  0  0  0  0
 25 49  1  0  0  0  0
 26 27  1  0  0  0  0
 26 50  1  0  0  0  0
 27 51  1  0  0  0  0
 28 30  2  0  0  0  0
 28 52  1  0  0  0  0
 29 30  1  0  0  0  0
 29 53  1  0  0  0  0
 30 54  1  0  0  0  0
M  END
>  <$CLUSTER>
428

>  <INDEX>
283898

$$$$
Life Chemicals F0670-0327
  MOE2020           3D

 48 50  0  0  1  0  0  0  0  0999 V2000
   -0.0810    0.9150    0.5200 N   0  0  0  0  0  0  0  0  0  0  0  0
   -0.0880    0.9550   -0.8820 C   0  0  0  0  0  0  0  0  0  0  0  0
   -0.9820   -1.9920   -0.4280 S   0  0  0  0  0  0  0  0  0  0  0  0
    0.7360   -0.1010   -1.5990 C   0  0  0  0  0  0  0  0  0  0  0  0
    0.3850   -0.2090    1.2880 C   0  0  0  0  0  0  0  0  0  0  0  0
   -0.0200   -1.3990   -1.8630 C   0  0  3  0  0  0  0  0  0  0  0  0
    0.1220   -1.5460    0.9100 C   0  0  0  0  0  0  0  0  0  0  0  0
   -0.9730   -1.2650   -3.0510 C   0  0  0  0  0  0  0  0  0  0  0  0
   -0.9940   -2.2810   -4.0610 C   0  0  0  0  0  0  0  0  0  0  0  0
   -1.8420   -2.1930   -5.1680 C   0  0  0  0  0  0  0  0  0  0  0  0
   -0.6670    1.8220   -1.5430 O   0  0  0  0  0  0  0  0  0  0  0  0
   -2.6900   -1.0970   -5.3130 C   0  0  0  0  0  0  0  0  0  0  0  0
   -1.8450   -0.1750   -3.2430 C   0  0  0  0  0  0  0  0  0  0  0  0
   -2.6920   -0.0890   -4.3510 C   0  0  0  0  0  0  0  0  0  0  0  0
   -0.5900    2.0900    1.2420 C   0  0  0  0  0  0  0  0  0  0  0  0
   -1.8980   -3.1460   -6.1590 O   0  0  0  0  0  0  0  0  0  0  0  0
   -3.4830   -1.0970   -6.4320 O   0  0  0  0  0  0  0  0  0  0  0  0
    1.1040    0.0140    2.4770 C   0  0  0  0  0  0  0  0  0  0  0  0
    0.6080   -2.6050    1.6950 C   0  0  0  0  0  0  0  0  0  0  0  0
   -1.0440   -4.2780   -6.0420 C   0  0  0  0  0  0  0  0  0  0  0  0
   -4.3610    0.0060   -6.6140 C   0  0  0  0  0  0  0  0  0  0  0  0
    0.3820    3.2630    1.2160 C   0  0  0  0  0  0  0  0  0  0  0  0
    1.5900   -1.0480    3.2430 C   0  0  0  0  0  0  0  0  0  0  0  0
    1.3490   -2.3570    2.8480 C   0  0  0  0  0  0  0  0  0  0  0  0
   -0.1440    4.4540    1.9660 C   0  0  0  0  0  0  0  0  0  0  0  0
    1.6080   -0.3300   -0.9870 H   0  0  0  0  0  0  0  0  0  0  0  0
    1.0610    0.3080   -2.5560 H   0  0  0  0  0  0  0  0  0  0  0  0
    0.7590   -2.1300   -2.0790 H   0  0  0  0  0  0  0  0  0  0  0  0
   -0.3390   -3.1350   -3.9640 H   0  0  0  0  0  0  0  0  0  0  0  0
   -1.8590    0.6190   -2.5110 H   0  0  0  0  0  0  0  0  0  0  0  0
   -3.3500    0.7610   -4.4620 H   0  0  0  0  0  0  0  0  0  0  0  0
   -0.7710    1.8100    2.2800 H   0  0  0  0  0  0  0  0  0  0  0  0
   -1.5270    2.4030    0.7810 H   0  0  0  0  0  0  0  0  0  0  0  0
    1.2840    1.0270    2.8040 H   0  0  0  0  0  0  0  0  0  0  0  0
    0.4040   -3.6240    1.4010 H   0  0  0  0  0  0  0  0  0  0  0  0
   -1.1990   -4.9400   -6.8940 H   0  0  0  0  0  0  0  0  0  0  0  0
   -1.2730   -4.8120   -5.1200 H   0  0  0  0  0  0  0  0  0  0  0  0
   -0.0050   -3.9490   -6.0220 H   0  0  0  0  0  0  0  0  0  0  0  0
   -4.9250   -0.1270   -7.5370 H   0  0  0  0  0  0  0  0  0  0  0  0
   -3.7810    0.9270   -6.6720 H   0  0  0  0  0  0  0  0  0  0  0  0
   -5.0510    0.0640   -5.7720 H   0  0  0  0  0  0  0  0  0  0  0  0
    0.5570    3.5510    0.1790 H   0  0  0  0  0  0  0  0  0  0  0  0
    1.3220    2.9500    1.6700 H   0  0  0  0  0  0  0  0  0  0  0  0
    2.1540   -0.8510    4.1430 H   0  0  0  0  0  0  0  0  0  0  0  0
    1.7340   -3.1790    3.4320 H   0  0  0  0  0  0  0  0  0  0  0  0
   -1.0850    4.7770    1.5210 H   0  0  0  0  0  0  0  0  0  0  0  0
    0.5810    5.2660    1.9130 H   0  0  0  0  0  0  0  0  0  0  0  0
   -0.3090    4.1830    3.0090 H   0  0  0  0  0  0  0  0  0  0  0  0
  1  2  1  0  0  0  0
  1  5  1  0  0  0  0
  1 15  1  0  0  0  0
  2  4  1  0  0  0  0
  2 11  2  0  0  0  0
  3  6  1  0  0  0  0
  3  7  1  0  0  0  0
  4  6  1  0  0  0  0
  4 26  1  0  0  0  0
  4 27  1  0  0  0  0
  5  7  2  0  0  0  0
  5 18  1  0  0  0  0
  6  8  1  0  0  0  0
  6 28  1  0  0  0  0
  7 19  1  0  0  0  0
  8  9  1  0  0  0  0
  8 13  2  0  0  0  0
  9 10  2  0  0  0  0
  9 29  1  0  0  0  0
 10 12  1  0  0  0  0
 10 16  1  0  0  0  0
 12 14  2  0  0  0  0
 12 17  1  0  0  0  0
 13 14  1  0  0  0  0
 13 30  1  0  0  0  0
 14 31  1  0  0  0  0
 15 22  1  0  0  0  0
 15 32  1  0  0  0  0
 15 33  1  0  0  0  0
 16 20  1  0  0  0  0
 17 21  1  0  0  0  0
 18 23  2  0  0  0  0
 18 34  1  0  0  0  0
 19 24  2  0  0  0  0
 19 35  1  0  0  0  0
 20 36  1  0  0  0  0
 20 37  1  0  0  0  0
 20 38  1  0  0  0  0
 21 39  1  0  0  0  0
 21 40  1  0  0  0  0
 21 41  1  0  0  0  0
 22 25  1  0  0  0  0
 22 42  1  0  0  0  0
 22 43  1  0  0  0  0
 23 24  1  0  0  0  0
 23 44  1  0  0  0  0
 24 45  1  0  0  0  0
 25 46  1  0  0  0  0
 25 47  1  0  0  0  0
 25 48  1  0  0  0  0
M  END
>  <$CLUSTER>
429

>  <INDEX>
283947

$$$$
Life Chemicals F0676-0365
  MOE2020           3D

 47 50  0  0  0  0  0  0  0  0999 V2000
    0.7850    1.4320   -0.4670 N   0  0  0  0  0  0  0  0  0  0  0  0
   -0.2040    0.4660   -0.4680 C   0  0  0  0  0  0  0  0  0  0  0  0
   -1.1740    0.8700   -1.2730 N   0  0  0  0  0  0  0  0  0  0  0  0
    0.3240    2.4420   -1.2840 C   0  0  0  0  0  0  0  0  0  0  0  0
    1.9780    1.4030    0.1880 N   0  0  0  0  0  0  0  0  0  0  0  0
   -0.8500    2.1110   -1.7710 N   0  0  0  0  0  0  0  0  0  0  0  0
    5.8240   -0.5240    0.7000 N   0  0  0  0  0  0  0  0  0  0  0  0
    2.7010    2.4650   -0.0020 C   0  0  0  0  0  0  0  0  0  0  0  0
   -0.1750   -0.8030    0.2600 C   0  0  0  0  0  0  0  0  0  0  0  0
    4.5420   -0.1210    0.8630 C   0  0  0  0  0  0  0  0  0  0  0  0
    1.1450    3.5770   -1.4530 C   0  0  0  0  0  0  0  0  0  0  0  0
    2.3310    3.6320   -0.8370 C   0  0  0  0  0  0  0  0  0  0  0  0
    4.2780    2.6370    0.7540 S   0  0  0  0  0  0  0  0  0  0  0  0
    4.3800    1.1220    1.7330 C   0  0  0  0  0  0  0  0  0  0  0  0
   -0.7460   -1.9440   -0.3230 C   0  0  0  0  0  0  0  0  0  0  0  0
    7.0400    0.0680    1.3120 C   0  0  0  0  0  0  0  0  0  0  0  0
    6.1380   -1.7140   -0.1350 C   0  0  0  0  0  0  0  0  0  0  0  0
    3.5980   -0.6620    0.2970 O   0  0  0  0  0  0  0  0  0  0  0  0
   -0.7390   -3.1690    0.3490 C   0  0  0  0  0  0  0  0  0  0  0  0
    7.1230   -1.3430   -1.2410 C   0  0  0  0  0  0  0  0  0  0  0  0
    8.0420    0.4700    0.2320 C   0  0  0  0  0  0  0  0  0  0  0  0
   -1.2580   -4.2900   -0.1540 F   0  0  0  0  0  0  0  0  0  0  0  0
    0.3840   -0.9130    1.5420 C   0  0  0  0  0  0  0  0  0  0  0  0
    8.4020   -0.7030   -0.6860 C   0  0  0  0  0  0  0  0  0  0  0  0
    0.3890   -2.1390    2.2130 C   0  0  0  0  0  0  0  0  0  0  0  0
   -0.1700   -3.2660    1.6160 C   0  0  0  0  0  0  0  0  0  0  0  0
    9.3270   -0.2550   -1.8150 C   0  0  0  0  0  0  0  0  0  0  0  0
    0.8180    4.3960   -2.0760 H   0  0  0  0  0  0  0  0  0  0  0  0
    2.9860    4.4840   -0.9430 H   0  0  0  0  0  0  0  0  0  0  0  0
    5.2370    1.1950    2.4030 H   0  0  0  0  0  0  0  0  0  0  0  0
    3.4670    1.0220    2.3200 H   0  0  0  0  0  0  0  0  0  0  0  0
   -1.1960   -1.8750   -1.3020 H   0  0  0  0  0  0  0  0  0  0  0  0
    7.5010   -0.6650    1.9740 H   0  0  0  0  0  0  0  0  0  0  0  0
    6.7590    0.9510    1.8870 H   0  0  0  0  0  0  0  0  0  0  0  0
    5.2190   -2.0900   -0.5840 H   0  0  0  0  0  0  0  0  0  0  0  0
    6.5790   -2.4880    0.4940 H   0  0  0  0  0  0  0  0  0  0  0  0
    6.6420   -0.6370   -1.9170 H   0  0  0  0  0  0  0  0  0  0  0  0
    7.3920   -2.2460   -1.7890 H   0  0  0  0  0  0  0  0  0  0  0  0
    8.9510    0.8320    0.7130 H   0  0  0  0  0  0  0  0  0  0  0  0
    7.6080    1.2680   -0.3710 H   0  0  0  0  0  0  0  0  0  0  0  0
    0.8140   -0.0420    2.0150 H   0  0  0  0  0  0  0  0  0  0  0  0
    8.9400   -1.4490   -0.1020 H   0  0  0  0  0  0  0  0  0  0  0  0
    0.8280   -2.2120    3.1970 H   0  0  0  0  0  0  0  0  0  0  0  0
   -0.1620   -4.2130    2.1350 H   0  0  0  0  0  0  0  0  0  0  0  0
    8.8210    0.4950   -2.4230 H   0  0  0  0  0  0  0  0  0  0  0  0
    9.5850   -1.1130   -2.4360 H   0  0  0  0  0  0  0  0  0  0  0  0
   10.2360    0.1730   -1.3920 H   0  0  0  0  0  0  0  0  0  0  0  0
  1  2  1  0  0  0  0
  1  4  1  0  0  0  0
  1  5  1  0  0  0  0
  2  3  2  0  0  0  0
  2  9  1  0  0  0  0
  3  6  1  0  0  0  0
  4  6  2  0  0  0  0
  4 11  1  0  0  0  0
  5  8  2  0  0  0  0
  7 10  1  0  0  0  0
  7 16  1  0  0  0  0
  7 17  1  0  0  0  0
  8 12  1  0  0  0  0
  8 13  1  0  0  0  0
  9 15  2  0  0  0  0
  9 23  1  0  0  0  0
 10 14  1  0  0  0  0
 10 18  2  0  0  0  0
 11 12  2  0  0  0  0
 11 28  1  0  0  0  0
 12 29  1  0  0  0  0
 13 14  1  0  0  0  0
 14 30  1  0  0  0  0
 14 31  1  0  0  0  0
 15 19  1  0  0  0  0
 15 32  1  0  0  0  0
 16 21  1  0  0  0  0
 16 33  1  0  0  0  0
 16 34  1  0  0  0  0
 17 20  1  0  0  0  0
 17 35  1  0  0  0  0
 17 36  1  0  0  0  0
 19 22  1  0  0  0  0
 19 26  2  0  0  0  0
 20 24  1  0  0  0  0
 20 37  1  0  0  0  0
 20 38  1  0  0  0  0
 21 24  1  0  0  0  0
 21 39  1  0  0  0  0
 21 40  1  0  0  0  0
 23 25  2  0  0  0  0
 23 41  1  0  0  0  0
 24 27  1  0  0  0  0
 24 42  1  0  0  0  0
 25 26  1  0  0  0  0
 25 43  1  0  0  0  0
 26 44  1  0  0  0  0
 27 45  1  0  0  0  0
 27 46  1  0  0  0  0
 27 47  1  0  0  0  0
M  END
>  <$CLUSTER>
430

>  <INDEX>
284800

$$$$
Life Chemicals F0679-0260
  MOE2020           3D

 41 44  0  0  0  0  0  0  0  0999 V2000
    0.9570    0.3830    0.2170 C   0  0  0  0  0  0  0  0  0  0  0  0
    2.0040   -0.1220   -0.5260 C   0  0  0  0  0  0  0  0  0  0  0  0
    1.0550    1.1770    1.3160 N   0  0  0  0  0  0  0  0  0  0  0  0
   -0.2100   -0.0810   -0.3810 N   0  0  0  0  0  0  0  0  0  0  0  0
    3.3650    0.1820   -0.1580 C   0  0  0  0  0  0  0  0  0  0  0  0
    3.4180    0.9980    0.9730 N   0  0  0  0  0  0  0  0  0  0  0  0
    0.0860   -0.8570   -1.4690 N   0  0  0  0  0  0  0  0  0  0  0  0
    2.2830    1.4470    1.6420 C   0  0  0  0  0  0  0  0  0  0  0  0
    1.4170   -0.8710   -1.5420 C   0  0  0  0  0  0  0  0  0  0  0  0
    5.2920    0.4280    2.5140 C   0  0  0  0  0  0  0  0  0  0  0  0
    4.7540    1.4200    1.4910 C   0  0  0  0  0  0  0  0  0  0  0  0
   -1.5770    0.1340   -0.0270 C   0  0  0  0  0  0  0  0  0  0  0  0
    5.1060    0.7950    3.8100 N   0  0  0  0  0  0  0  0  0  0  0  0
    4.3420   -0.2300   -0.7700 O   0  0  0  0  0  0  0  0  0  0  0  0
    5.8330   -0.6350    2.2080 O   0  0  0  0  0  0  0  0  0  0  0  0
   -2.5860   -0.4580   -0.8080 C   0  0  0  0  0  0  0  0  0  0  0  0
   -1.9500    0.9150    1.0730 C   0  0  0  0  0  0  0  0  0  0  0  0
    5.4390    0.1860    5.0240 C   0  0  0  0  0  0  0  0  0  0  0  0
   -4.2930    0.5100    0.6040 C   0  0  0  0  0  0  0  0  0  0  0  0
    6.0700   -0.9710    7.5060 C   0  0  0  0  0  0  0  0  0  0  0  0
   -3.3020    1.1000    1.3830 C   0  0  0  0  0  0  0  0  0  0  0  0
   -3.9350   -0.2690   -0.4910 C   0  0  0  0  0  0  0  0  0  0  0  0
    6.3360   -1.4540    8.7190 F   0  0  0  0  0  0  0  0  0  0  0  0
   -5.9300    0.7500    1.0010 Cl  0  0  0  0  0  0  0  0  0  0  0  0
    6.0850   -1.0520    5.0840 C   0  0  0  0  0  0  0  0  0  0  0  0
    5.1120    0.8370    6.2250 C   0  0  0  0  0  0  0  0  0  0  0  0
    5.4260    0.2620    7.4580 C   0  0  0  0  0  0  0  0  0  0  0  0
    6.3980   -1.6260    6.3210 C   0  0  0  0  0  0  0  0  0  0  0  0
    2.4370    2.0740    2.5070 H   0  0  0  0  0  0  0  0  0  0  0  0
    1.9740   -1.4010   -2.3000 H   0  0  0  0  0  0  0  0  0  0  0  0
    4.6590    2.3980    1.9620 H   0  0  0  0  0  0  0  0  0  0  0  0
    5.4530    1.4840    0.6570 H   0  0  0  0  0  0  0  0  0  0  0  0
    4.6350    1.6820    3.9170 H   0  0  0  0  0  0  0  0  0  0  0  0
   -2.3170   -1.0640   -1.6600 H   0  0  0  0  0  0  0  0  0  0  0  0
   -1.1900    1.3770    1.6860 H   0  0  0  0  0  0  0  0  0  0  0  0
   -3.5790    1.7050    2.2330 H   0  0  0  0  0  0  0  0  0  0  0  0
   -4.7010   -0.7290   -1.0980 H   0  0  0  0  0  0  0  0  0  0  0  0
    6.3440   -1.5680    4.1710 H   0  0  0  0  0  0  0  0  0  0  0  0
    4.6120    1.7940    6.1940 H   0  0  0  0  0  0  0  0  0  0  0  0
    5.1690    0.7740    8.3740 H   0  0  0  0  0  0  0  0  0  0  0  0
    6.8970   -2.5830    6.3570 H   0  0  0  0  0  0  0  0  0  0  0  0
  1  2  2  0  0  0  0
  1  3  1  0  0  0  0
  1  4  1  0  0  0  0
  2  5  1  0  0  0  0
  2  9  1  0  0  0  0
  3  8  2  0  0  0  0
  4  7  1  0  0  0  0
  4 12  1  0  0  0  0
  5  6  1  0  0  0  0
  5 14  2  0  0  0  0
  6  8  1  0  0  0  0
  6 11  1  0  0  0  0
  7  9  2  0  0  0  0
  8 29  1  0  0  0  0
  9 30  1  0  0  0  0
 10 11  1  0  0  0  0
 10 13  1  0  0  0  0
 10 15  2  0  0  0  0
 11 31  1  0  0  0  0
 11 32  1  0  0  0  0
 12 16  1  0  0  0  0
 12 17  2  0  0  0  0
 13 18  1  0  0  0  0
 13 33  1  0  0  0  0
 16 22  2  0  0  0  0
 16 34  1  0  0  0  0
 17 21  1  0  0  0  0
 17 35  1  0  0  0  0
 18 25  1  0  0  0  0
 18 26  2  0  0  0  0
 19 21  2  0  0  0  0
 19 22  1  0  0  0  0
 19 24  1  0  0  0  0
 20 23  1  0  0  0  0
 20 27  2  0  0  0  0
 20 28  1  0  0  0  0
 21 36  1  0  0  0  0
 22 37  1  0  0  0  0
 25 28  2  0  0  0  0
 25 38  1  0  0  0  0
 26 27  1  0  0  0  0
 26 39  1  0  0  0  0
 27 40  1  0  0  0  0
 28 41  1  0  0  0  0
M  END
>  <$CLUSTER>
431

>  <INDEX>
285866

$$$$
Life Chemicals F0679-0193
  MOE2020           3D

 40 43  0  0  0  0  0  0  0  0999 V2000
    0.9570    0.3830    0.2170 C   0  0  0  0  0  0  0  0  0  0  0  0
    2.0040   -0.1220   -0.5260 C   0  0  0  0  0  0  0  0  0  0  0  0
    1.0550    1.1770    1.3160 N   0  0  0  0  0  0  0  0  0  0  0  0
   -0.2100   -0.0810   -0.3810 N   0  0  0  0  0  0  0  0  0  0  0  0
    3.3650    0.1820   -0.1580 C   0  0  0  0  0  0  0  0  0  0  0  0
    3.4180    0.9980    0.9730 N   0  0  0  0  0  0  0  0  0  0  0  0
    0.0860   -0.8570   -1.4690 N   0  0  0  0  0  0  0  0  0  0  0  0
    2.2830    1.4470    1.6420 C   0  0  0  0  0  0  0  0  0  0  0  0
    1.4170   -0.8710   -1.5420 C   0  0  0  0  0  0  0  0  0  0  0  0
   -1.5770    0.1340   -0.0270 C   0  0  0  0  0  0  0  0  0  0  0  0
    4.7540    1.4200    1.4910 C   0  0  0  0  0  0  0  0  0  0  0  0
    4.3420   -0.2300   -0.7700 O   0  0  0  0  0  0  0  0  0  0  0  0
   -2.5860   -0.4580   -0.8080 C   0  0  0  0  0  0  0  0  0  0  0  0
   -1.9500    0.9150    1.0730 C   0  0  0  0  0  0  0  0  0  0  0  0
    5.2920    0.4280    2.5140 C   0  0  0  0  0  0  0  0  0  0  0  0
    6.2920   -1.3820    4.4000 C   0  0  0  0  0  0  0  0  0  0  0  0
   -3.3020    1.1000    1.3830 C   0  0  0  0  0  0  0  0  0  0  0  0
   -3.9350   -0.2690   -0.4910 C   0  0  0  0  0  0  0  0  0  0  0  0
   -4.2930    0.5100    0.6040 C   0  0  0  0  0  0  0  0  0  0  0  0
    6.9030   -2.4670    5.5600 Cl  0  0  0  0  0  0  0  0  0  0  0  0
    6.2300   -0.5370    2.1340 C   0  0  0  0  0  0  0  0  0  0  0  0
    4.8400    0.4690    3.8380 C   0  0  0  0  0  0  0  0  0  0  0  0
    6.7330   -1.4370    3.0780 C   0  0  0  0  0  0  0  0  0  0  0  0
    5.3450   -0.4310    4.7800 C   0  0  0  0  0  0  0  0  0  0  0  0
   -5.7330    0.7110    0.9410 C   0  0  0  0  0  0  0  0  0  0  0  0
    2.4370    2.0740    2.5070 H   0  0  0  0  0  0  0  0  0  0  0  0
    1.9740   -1.4010   -2.3000 H   0  0  0  0  0  0  0  0  0  0  0  0
    4.6590    2.3980    1.9620 H   0  0  0  0  0  0  0  0  0  0  0  0
    5.4530    1.4840    0.6570 H   0  0  0  0  0  0  0  0  0  0  0  0
   -2.3170   -1.0640   -1.6600 H   0  0  0  0  0  0  0  0  0  0  0  0
   -1.1900    1.3770    1.6860 H   0  0  0  0  0  0  0  0  0  0  0  0
   -3.5790    1.7050    2.2330 H   0  0  0  0  0  0  0  0  0  0  0  0
   -4.7010   -0.7290   -1.0980 H   0  0  0  0  0  0  0  0  0  0  0  0
    6.5670   -0.5870    1.1090 H   0  0  0  0  0  0  0  0  0  0  0  0
    4.0990    1.1980    4.1320 H   0  0  0  0  0  0  0  0  0  0  0  0
    7.4640   -2.1760    2.7830 H   0  0  0  0  0  0  0  0  0  0  0  0
    5.0020   -0.3900    5.8030 H   0  0  0  0  0  0  0  0  0  0  0  0
   -5.8140    1.3450    1.8240 H   0  0  0  0  0  0  0  0  0  0  0  0
   -6.1970   -0.2540    1.1430 H   0  0  0  0  0  0  0  0  0  0  0  0
   -6.2390    1.1890    0.1020 H   0  0  0  0  0  0  0  0  0  0  0  0
  1  2  2  0  0  0  0
  1  3  1  0  0  0  0
  1  4  1  0  0  0  0
  2  5  1  0  0  0  0
  2  9  1  0  0  0  0
  3  8  2  0  0  0  0
  4  7  1  0  0  0  0
  4 10  1  0  0  0  0
  5  6  1  0  0  0  0
  5 12  2  0  0  0  0
  6  8  1  0  0  0  0
  6 11  1  0  0  0  0
  7  9  2  0  0  0  0
  8 26  1  0  0  0  0
  9 27  1  0  0  0  0
 10 13  1  0  0  0  0
 10 14  2  0  0  0  0
 11 15  1  0  0  0  0
 11 28  1  0  0  0  0
 11 29  1  0  0  0  0
 13 18  2  0  0  0  0
 13 30  1  0  0  0  0
 14 17  1  0  0  0  0
 14 31  1  0  0  0  0
 15 21  2  0  0  0  0
 15 22  1  0  0  0  0
 16 20  1  0  0  0  0
 16 23  2  0  0  0  0
 16 24  1  0  0  0  0
 17 19  2  0  0  0  0
 17 32  1  0  0  0  0
 18 19  1  0  0  0  0
 18 33  1  0  0  0  0
 19 25  1  0  0  0  0
 21 23  1  0  0  0  0
 21 34  1  0  0  0  0
 22 24  2  0  0  0  0
 22 35  1  0  0  0  0
 23 36  1  0  0  0  0
 24 37  1  0  0  0  0
 25 38  1  0  0  0  0
 25 39  1  0  0  0  0
 25 40  1  0  0  0  0
M  END
>  <$CLUSTER>
432

>  <INDEX>
285831

$$$$
Asinex BAS 05099862
  MOE2020           3D

 47 50  0  0  0  0  0  0  0  0999 V2000
   -0.5400    0.0690   -0.4820 N   0  0  0  0  0  0  0  0  0  0  0  0
   -1.0770    1.3230   -0.2080 C   0  0  0  0  0  0  0  0  0  0  0  0
   -1.3630   -0.6390   -1.3070 N   0  0  0  0  0  0  0  0  0  0  0  0
   -2.2860    1.4040   -0.8900 C   0  0  0  0  0  0  0  0  0  0  0  0
   -2.3970    0.1670   -1.5410 C   0  0  0  0  0  0  0  0  0  0  0  0
   -3.0210    2.5880   -0.7670 C   0  0  0  0  0  0  0  0  0  0  0  0
   -0.5560    2.2950    0.5630 N   0  0  0  0  0  0  0  0  0  0  0  0
   -2.5290    3.5880    0.0000 N   0  0  0  0  0  0  0  0  0  0  0  0
    0.6800   -0.5220   -0.0350 C   0  0  0  0  0  0  0  0  0  0  0  0
   -4.5680    2.7420   -1.6150 S   0  0  0  0  0  0  0  0  0  0  0  0
   -1.3440    3.3840    0.6090 C   0  0  0  0  0  0  0  0  0  0  0  0
   -4.2060    5.4920   -1.7680 C   0  0  0  0  0  0  0  0  0  0  0  0
   -3.1800    5.9200   -0.9960 N   0  0  0  0  0  0  0  0  0  0  0  0
   -4.3800    5.8790   -2.9180 O   0  0  0  0  0  0  0  0  0  0  0  0
    1.0070   -1.8230   -0.4550 C   0  0  0  0  0  0  0  0  0  0  0  0
    1.5670    0.1540    0.8120 C   0  0  0  0  0  0  0  0  0  0  0  0
   -5.0690    4.4130   -1.1230 C   0  0  0  0  0  0  0  0  0  0  0  0
   -2.1740    6.8740   -1.2080 C   0  0  0  0  0  0  0  0  0  0  0  0
    2.1940   -2.4300   -0.0360 C   0  0  0  0  0  0  0  0  0  0  0  0
    2.7530   -0.4600    1.2280 C   0  0  0  0  0  0  0  0  0  0  0  0
    3.0670   -1.7490    0.8060 C   0  0  0  0  0  0  0  0  0  0  0  0
   -0.1200    8.7590   -1.5590 C   0  0  0  0  0  0  0  0  0  0  0  0
   -2.0530    7.5750   -2.4120 C   0  0  0  0  0  0  0  0  0  0  0  0
   -1.2510    7.1300   -0.1830 C   0  0  0  0  0  0  0  0  0  0  0  0
   -1.0310    8.5130   -2.5850 C   0  0  0  0  0  0  0  0  0  0  0  0
   -0.2300    8.0670   -0.3580 C   0  0  0  0  0  0  0  0  0  0  0  0
    4.3340   -2.3990    1.2530 C   0  0  0  0  0  0  0  0  0  0  0  0
    0.9710    9.7600   -1.7490 C   0  0  0  0  0  0  0  0  0  0  0  0
   -3.2340   -0.1040   -2.1670 H   0  0  0  0  0  0  0  0  0  0  0  0
   -0.9800    4.2020    1.2130 H   0  0  0  0  0  0  0  0  0  0  0  0
   -3.1290    5.4660   -0.0950 H   0  0  0  0  0  0  0  0  0  0  0  0
    0.3340   -2.3590   -1.1080 H   0  0  0  0  0  0  0  0  0  0  0  0
    1.3340    1.1540    1.1460 H   0  0  0  0  0  0  0  0  0  0  0  0
   -4.9850    4.4990   -0.0400 H   0  0  0  0  0  0  0  0  0  0  0  0
   -6.1060    4.5700   -1.4210 H   0  0  0  0  0  0  0  0  0  0  0  0
    2.4340   -3.4300   -0.3670 H   0  0  0  0  0  0  0  0  0  0  0  0
    3.4300    0.0700    1.8810 H   0  0  0  0  0  0  0  0  0  0  0  0
   -2.7530    7.3910   -3.2130 H   0  0  0  0  0  0  0  0  0  0  0  0
   -1.3310    6.5960    0.7520 H   0  0  0  0  0  0  0  0  0  0  0  0
   -0.9470    9.0500   -3.5180 H   0  0  0  0  0  0  0  0  0  0  0  0
    0.4740    8.2540    0.4390 H   0  0  0  0  0  0  0  0  0  0  0  0
    4.4020   -3.3980    0.8220 H   0  0  0  0  0  0  0  0  0  0  0  0
    4.3410   -2.4720    2.3410 H   0  0  0  0  0  0  0  0  0  0  0  0
    5.1840   -1.8020    0.9230 H   0  0  0  0  0  0  0  0  0  0  0  0
    0.8950   10.1950   -2.7450 H   0  0  0  0  0  0  0  0  0  0  0  0
    1.9380    9.2690   -1.6400 H   0  0  0  0  0  0  0  0  0  0  0  0
    0.8770   10.5470   -1.0010 H   0  0  0  0  0  0  0  0  0  0  0  0
  1  2  1  0  0  0  0
  1  3  1  0  0  0  0
  1  9  1  0  0  0  0
  2  4  2  0  0  0  0
  2  7  1  0  0  0  0
  3  5  2  0  0  0  0
  4  5  1  0  0  0  0
  4  6  1  0  0  0  0
  5 29  1  0  0  0  0
  6  8  2  0  0  0  0
  6 10  1  0  0  0  0
  7 11  2  0  0  0  0
  8 11  1  0  0  0  0
  9 15  2  0  0  0  0
  9 16  1  0  0  0  0
 10 17  1  0  0  0  0
 11 30  1  0  0  0  0
 12 13  1  0  0  0  0
 12 14  2  0  0  0  0
 12 17  1  0  0  0  0
 13 18  1  0  0  0  0
 13 31  1  0  0  0  0
 15 19  1  0  0  0  0
 15 32  1  0  0  0  0
 16 20  2  0  0  0  0
 16 33  1  0  0  0  0
 17 34  1  0  0  0  0
 17 35  1  0  0  0  0
 18 23  2  0  0  0  0
 18 24  1  0  0  0  0
 19 21  2  0  0  0  0
 19 36  1  0  0  0  0
 20 21  1  0  0  0  0
 20 37  1  0  0  0  0
 21 27  1  0  0  0  0
 22 25  2  0  0  0  0
 22 26  1  0  0  0  0
 22 28  1  0  0  0  0
 23 25  1  0  0  0  0
 23 38  1  0  0  0  0
 24 26  2  0  0  0  0
 24 39  1  0  0  0  0
 25 40  1  0  0  0  0
 26 41  1  0  0  0  0
 27 42  1  0  0  0  0
 27 43  1  0  0  0  0
 27 44  1  0  0  0  0
 28 45  1  0  0  0  0
 28 46  1  0  0  0  0
 28 47  1  0  0  0  0
M  END
>  <$CLUSTER>
433

>  <INDEX>
181476

$$$$
Life Chemicals F0638-0654
  MOE2020           3D

 46 48  0  0  1  0  0  0  0  0999 V2000
   -1.7270   -0.1590    0.3230 S   0  0  0  0  0  0  0  0  0  0  0  0
   -2.1450    1.4000    0.7670 N   0  0  0  0  0  0  0  0  0  0  0  0
   -3.5190    3.4230    1.7870 N   0  3  0  0  0  0  0  0  0  0  0  0
   -1.6030    1.9540    2.0030 C   0  0  0  0  0  0  0  0  0  0  0  0
   -2.0850    3.3950    2.1850 C   0  0  3  0  0  0  0  0  0  0  0  0
    0.0040   -0.0300   -0.0060 C   0  0  0  0  0  0  0  0  0  0  0  0
   -2.4130   -0.4580   -0.9230 O   0  0  0  0  0  0  0  0  0  0  0  0
   -1.9210   -1.0130    1.4810 O   0  0  0  0  0  0  0  0  0  0  0  0
   -1.9410    3.9280    3.6130 C   0  0  0  0  0  0  0  0  0  0  0  0
   -0.9720    5.6220    5.0680 N   0  0  0  0  0  0  0  0  0  0  0  0
   -6.3440    4.1960    1.8730 O   0  0  0  0  0  0  0  0  0  0  0  0
    0.4420    0.2930   -1.2940 C   0  0  0  0  0  0  0  0  0  0  0  0
    0.9250   -0.2930    1.0120 C   0  0  0  0  0  0  0  0  0  0  0  0
    2.7330    0.1110   -0.5420 C   0  0  0  0  0  0  0  0  0  0  0  0
    1.8110    0.3660   -1.5580 C   0  0  0  0  0  0  0  0  0  0  0  0
    2.2920   -0.2180    0.7410 C   0  0  0  0  0  0  0  0  0  0  0  0
    4.5520    0.2040   -0.8770 Br  0  0  0  0  0  0  0  0  0  0  0  0
   -1.1850    5.0790    3.8410 C   0  0  0  0  0  0  0  0  0  0  0  0
   -4.5600    2.7580    2.6560 C   0  0  0  0  0  0  0  0  0  0  0  0
   -4.0230    4.8430    1.4140 C   0  0  0  0  0  0  0  0  0  0  0  0
   -2.4800    3.2840    4.7320 C   0  0  0  0  0  0  0  0  0  0  0  0
   -1.5270    4.9760    6.1230 C   0  0  0  0  0  0  0  0  0  0  0  0
   -5.9450    2.8320    2.1250 C   0  0  0  0  0  0  0  0  0  0  0  0
   -5.4630    4.8300    0.9200 C   0  0  0  0  0  0  0  0  0  0  0  0
   -2.2790    3.8170    6.0040 C   0  0  0  0  0  0  0  0  0  0  0  0
   -3.1510    1.4250    0.8480 H   0  0  0  0  0  0  0  0  0  0  0  0
   -3.4520    2.8150    0.9830 H   0  0  0  0  0  0  0  0  0  0  0  0
   -0.5140    1.9400    1.9580 H   0  0  0  0  0  0  0  0  0  0  0  0
   -1.9390    1.3510    2.8470 H   0  0  0  0  0  0  0  0  0  0  0  0
   -1.4600    4.0420    1.5690 H   0  0  0  0  0  0  0  0  0  0  0  0
   -0.2740    0.4850   -2.0790 H   0  0  0  0  0  0  0  0  0  0  0  0
    0.5810   -0.5530    2.0020 H   0  0  0  0  0  0  0  0  0  0  0  0
    2.1570    0.6200   -2.5490 H   0  0  0  0  0  0  0  0  0  0  0  0
    3.0090   -0.4150    1.5240 H   0  0  0  0  0  0  0  0  0  0  0  0
   -0.7410    5.5690    2.9870 H   0  0  0  0  0  0  0  0  0  0  0  0
   -4.5440    3.2390    3.6340 H   0  0  0  0  0  0  0  0  0  0  0  0
   -4.2920    1.7070    2.7640 H   0  0  0  0  0  0  0  0  0  0  0  0
   -3.3850    5.2460    0.6270 H   0  0  0  0  0  0  0  0  0  0  0  0
   -3.9600    5.4810    2.2960 H   0  0  0  0  0  0  0  0  0  0  0  0
   -3.0510    2.3750    4.6100 H   0  0  0  0  0  0  0  0  0  0  0  0
   -1.3750    5.3870    7.1100 H   0  0  0  0  0  0  0  0  0  0  0  0
   -5.9970    2.2700    1.1930 H   0  0  0  0  0  0  0  0  0  0  0  0
   -6.6270    2.3920    2.8530 H   0  0  0  0  0  0  0  0  0  0  0  0
   -5.7920    5.8570    0.7620 H   0  0  0  0  0  0  0  0  0  0  0  0
   -5.5090    4.2840   -0.0220 H   0  0  0  0  0  0  0  0  0  0  0  0
   -2.6990    3.3390    6.8760 H   0  0  0  0  0  0  0  0  0  0  0  0
  1  2  1  0  0  0  0
  1  6  1  0  0  0  0
  1  7  2  0  0  0  0
  1  8  2  0  0  0  0
  2  4  1  0  0  0  0
  2 26  1  0  0  0  0
  3  5  1  0  0  0  0
  3 19  1  0  0  0  0
  3 20  1  0  0  0  0
  3 27  1  0  0  0  0
  4  5  1  0  0  0  0
  4 28  1  0  0  0  0
  4 29  1  0  0  0  0
  5  9  1  0  0  0  0
  5 30  1  0  0  0  0
  6 12  2  0  0  0  0
  6 13  1  0  0  0  0
  9 18  2  0  0  0  0
  9 21  1  0  0  0  0
 10 18  1  0  0  0  0
 10 22  2  0  0  0  0
 11 23  1  0  0  0  0
 11 24  1  0  0  0  0
 12 15  1  0  0  0  0
 12 31  1  0  0  0  0
 13 16  2  0  0  0  0
 13 32  1  0  0  0  0
 14 15  2  0  0  0  0
 14 16  1  0  0  0  0
 14 17  1  0  0  0  0
 15 33  1  0  0  0  0
 16 34  1  0  0  0  0
 18 35  1  0  0  0  0
 19 23  1  0  0  0  0
 19 36  1  0  0  0  0
 19 37  1  0  0  0  0
 20 24  1  0  0  0  0
 20 38  1  0  0  0  0
 20 39  1  0  0  0  0
 21 25  2  0  0  0  0
 21 40  1  0  0  0  0
 22 25  1  0  0  0  0
 22 41  1  0  0  0  0
 23 42  1  0  0  0  0
 23 43  1  0  0  0  0
 24 44  1  0  0  0  0
 24 45  1  0  0  0  0
 25 46  1  0  0  0  0
M  CHG  1   3   1
M  END
>  <$CLUSTER>
434

>  <INDEX>
279962

$$$$
Life Chemicals F0694-0491
  MOE2020           3D

 40 43  0  0  0  0  0  0  0  0999 V2000
    5.2230    2.9420   -3.9630 C   0  0  0  0  0  0  0  0  0  0  0  0
    3.8730    3.5500   -4.8570 S   0  0  0  0  0  0  0  0  0  0  0  0
    6.3650    3.5530   -4.2200 N   0  0  0  0  0  0  0  0  0  0  0  0
    1.2820    0.5840   -1.0500 C   0  0  0  0  0  0  0  0  0  0  0  0
    4.8860    4.7060   -5.6080 C   0  0  0  0  0  0  0  0  0  0  0  0
    0.2440   -0.0850   -0.2560 C   0  0  0  0  0  0  0  0  0  0  0  0
    2.5260    0.0500   -0.9470 N   0  0  0  0  0  0  0  0  0  0  0  0
    3.7660    0.3860   -1.5330 C   0  0  0  0  0  0  0  0  0  0  0  0
    6.1750    4.5560   -5.1480 C   0  0  0  0  0  0  0  0  0  0  0  0
    5.0940    1.7960   -3.0100 C   0  0  0  0  0  0  0  0  0  0  0  0
    3.8690    1.4610   -2.4280 C   0  0  0  0  0  0  0  0  0  0  0  0
    4.4060    5.5690   -6.4950 N   0  0  0  0  0  0  0  0  0  0  0  0
   -0.5510    0.6010    0.6620 C   0  0  0  0  0  0  0  0  0  0  0  0
    1.0180    1.5420   -1.7690 O   0  0  0  0  0  0  0  0  0  0  0  0
    4.9290   -0.3590   -1.2270 C   0  0  0  0  0  0  0  0  0  0  0  0
    6.2360    1.0620   -2.7090 C   0  0  0  0  0  0  0  0  0  0  0  0
    6.1530   -0.0080   -1.8230 C   0  0  0  0  0  0  0  0  0  0  0  0
   -0.3210    2.4400    1.0670 Br  0  0  0  0  0  0  0  0  0  0  0  0
    0.0440   -1.4570   -0.4670 C   0  0  0  0  0  0  0  0  0  0  0  0
    7.1380    5.4430   -5.6830 C   0  0  0  0  0  0  0  0  0  0  0  0
    5.3640    6.3950   -6.9770 C   0  0  0  0  0  0  0  0  0  0  0  0
    4.9100   -1.5280   -0.2780 C   0  0  0  0  0  0  0  0  0  0  0  0
   -1.5470   -0.0870    1.3670 C   0  0  0  0  0  0  0  0  0  0  0  0
    6.7050    6.3800   -6.6200 C   0  0  0  0  0  0  0  0  0  0  0  0
   -0.9490   -2.1370    0.2380 C   0  0  0  0  0  0  0  0  0  0  0  0
   -1.7450   -1.4520    1.1530 C   0  0  0  0  0  0  0  0  0  0  0  0
    2.5740   -0.7460   -0.3280 H   0  0  0  0  0  0  0  0  0  0  0  0
    2.9890    2.0380   -2.6710 H   0  0  0  0  0  0  0  0  0  0  0  0
    7.1820    1.3210   -3.1600 H   0  0  0  0  0  0  0  0  0  0  0  0
    7.0410   -0.5770   -1.5900 H   0  0  0  0  0  0  0  0  0  0  0  0
    0.6600   -1.9880   -1.1770 H   0  0  0  0  0  0  0  0  0  0  0  0
    8.1720    5.3960   -5.3760 H   0  0  0  0  0  0  0  0  0  0  0  0
    5.0570    7.1320   -7.7050 H   0  0  0  0  0  0  0  0  0  0  0  0
    3.8980   -1.6740    0.0980 H   0  0  0  0  0  0  0  0  0  0  0  0
    5.5830   -1.3300    0.5560 H   0  0  0  0  0  0  0  0  0  0  0  0
    5.2360   -2.4270   -0.8020 H   0  0  0  0  0  0  0  0  0  0  0  0
   -2.1640    0.4410    2.0790 H   0  0  0  0  0  0  0  0  0  0  0  0
    7.4000    7.0810   -7.0600 H   0  0  0  0  0  0  0  0  0  0  0  0
   -1.1010   -3.1940    0.0750 H   0  0  0  0  0  0  0  0  0  0  0  0
   -2.5160   -1.9770    1.6970 H   0  0  0  0  0  0  0  0  0  0  0  0
  1  2  1  0  0  0  0
  1  3  2  0  0  0  0
  1 10  1  0  0  0  0
  2  5  1  0  0  0  0
  3  9  1  0  0  0  0
  4  6  1  0  0  0  0
  4  7  1  0  0  0  0
  4 14  2  0  0  0  0
  5  9  2  0  0  0  0
  5 12  1  0  0  0  0
  6 13  2  0  0  0  0
  6 19  1  0  0  0  0
  7  8  1  0  0  0  0
  7 27  1  0  0  0  0
  8 11  2  0  0  0  0
  8 15  1  0  0  0  0
  9 20  1  0  0  0  0
 10 11  1  0  0  0  0
 10 16  2  0  0  0  0
 11 28  1  0  0  0  0
 12 21  2  0  0  0  0
 13 18  1  0  0  0  0
 13 23  1  0  0  0  0
 15 17  2  0  0  0  0
 15 22  1  0  0  0  0
 16 17  1  0  0  0  0
 16 29  1  0  0  0  0
 17 30  1  0  0  0  0
 19 25  2  0  0  0  0
 19 31  1  0  0  0  0
 20 24  2  0  0  0  0
 20 32  1  0  0  0  0
 21 24  1  0  0  0  0
 21 33  1  0  0  0  0
 22 34  1  0  0  0  0
 22 35  1  0  0  0  0
 22 36  1  0  0  0  0
 23 26  2  0  0  0  0
 23 37  1  0  0  0  0
 24 38  1  0  0  0  0
 25 26  1  0  0  0  0
 25 39  1  0  0  0  0
 26 40  1  0  0  0  0
M  END
>  <$CLUSTER>
435

>  <INDEX>
287771

$$$$
Life Chemicals F0698-0310
  MOE2020           3D

 40 42  0  0  0  0  0  0  0  0999 V2000
   -0.8060   -8.1800    2.0590 N   0  0  0  0  0  0  0  0  0  0  0  0
    0.1570   -8.9360    2.7060 C   0  0  0  0  0  0  0  0  0  0  0  0
    0.0110   -9.2730    3.9860 N   0  0  0  0  0  0  0  0  0  0  0  0
    0.3620    0.6510   -0.0820 N   0  3  0  0  0  0  0  0  0  0  0  0
   -1.7320   -7.9420    2.9330 C   0  0  0  0  0  0  0  0  0  0  0  0
   -1.4450   -8.6070    4.4700 S   0  0  0  0  0  0  0  0  0  0  0  0
    1.3600   -9.3530    1.9460 C   0  0  0  0  0  0  0  0  0  0  0  0
   -0.2920   -0.6470    0.0810 C   0  0  0  0  0  0  0  0  0  0  0  0
   -1.8160   -5.5600    0.6780 C   0  0  0  0  0  0  0  0  0  0  0  0
    1.6040    0.6970   -0.1070 O   0  5  0  0  0  0  0  0  0  0  0  0
   -3.2260   -6.9790    2.5720 S   0  0  0  0  0  0  0  0  0  0  0  0
   -0.3660    1.6520   -0.1880 O   0  0  0  0  0  0  0  0  0  0  0  0
   -2.3260   -4.2760    0.5350 N   0  0  0  0  0  0  0  0  0  0  0  0
    1.2790   -9.9000    0.6470 C   0  0  0  0  0  0  0  0  0  0  0  0
   -0.6390   -5.9070    0.7000 O   0  0  0  0  0  0  0  0  0  0  0  0
    0.4780   -1.7400    0.1970 C   0  0  0  0  0  0  0  0  0  0  0  0
   -1.7850   -0.6130    0.1000 C   0  0  0  0  0  0  0  0  0  0  0  0
   -2.9240   -6.5740    0.8130 C   0  0  0  0  0  0  0  0  0  0  0  0
   -1.5980   -3.0720    0.3840 C   0  0  0  0  0  0  0  0  0  0  0  0
   -0.2020   -2.9930    0.3530 C   0  0  0  0  0  0  0  0  0  0  0  0
   -2.3450   -1.8910    0.2580 C   0  0  0  0  0  0  0  0  0  0  0  0
    2.6210   -9.1860    2.5460 C   0  0  0  0  0  0  0  0  0  0  0  0
   -0.0280  -10.1280   -0.0630 C   0  0  0  0  0  0  0  0  0  0  0  0
    2.4680  -10.2340   -0.0250 C   0  0  0  0  0  0  0  0  0  0  0  0
    3.7880   -9.5360    1.8670 C   0  0  0  0  0  0  0  0  0  0  0  0
    3.7120  -10.0560    0.5800 C   0  0  0  0  0  0  0  0  0  0  0  0
   -3.3320   -4.1920    0.5390 H   0  0  0  0  0  0  0  0  0  0  0  0
    1.5560   -1.6790    0.1740 H   0  0  0  0  0  0  0  0  0  0  0  0
   -2.3670    0.2910    0.0030 H   0  0  0  0  0  0  0  0  0  0  0  0
   -2.6430   -7.4830    0.2800 H   0  0  0  0  0  0  0  0  0  0  0  0
   -3.8370   -6.1660    0.3790 H   0  0  0  0  0  0  0  0  0  0  0  0
    0.3790   -3.8990    0.4490 H   0  0  0  0  0  0  0  0  0  0  0  0
   -3.4220   -1.9700    0.2840 H   0  0  0  0  0  0  0  0  0  0  0  0
    2.6870   -8.7820    3.5450 H   0  0  0  0  0  0  0  0  0  0  0  0
   -0.8510   -9.8220    0.5830 H   0  0  0  0  0  0  0  0  0  0  0  0
   -0.1300  -11.1860   -0.3050 H   0  0  0  0  0  0  0  0  0  0  0  0
   -0.0500   -9.5410   -0.9810 H   0  0  0  0  0  0  0  0  0  0  0  0
    2.4170  -10.6350   -1.0260 H   0  0  0  0  0  0  0  0  0  0  0  0
    4.7500   -9.4030    2.3410 H   0  0  0  0  0  0  0  0  0  0  0  0
    4.6150  -10.3220    0.0500 H   0  0  0  0  0  0  0  0  0  0  0  0
  1  2  1  0  0  0  0
  1  5  2  0  0  0  0
  2  3  2  0  0  0  0
  2  7  1  0  0  0  0
  3  6  1  0  0  0  0
  4  8  1  0  0  0  0
  4 10  1  0  0  0  0
  4 12  2  0  0  0  0
  5  6  1  0  0  0  0
  5 11  1  0  0  0  0
  7 14  2  0  0  0  0
  7 22  1  0  0  0  0
  8 16  2  0  0  0  0
  8 17  1  0  0  0  0
  9 13  1  0  0  0  0
  9 15  2  0  0  0  0
  9 18  1  0  0  0  0
 11 18  1  0  0  0  0
 13 19  1  0  0  0  0
 13 27  1  0  0  0  0
 14 23  1  0  0  0  0
 14 24  1  0  0  0  0
 16 20  1  0  0  0  0
 16 28  1  0  0  0  0
 17 21  2  0  0  0  0
 17 29  1  0  0  0  0
 18 30  1  0  0  0  0
 18 31  1  0  0  0  0
 19 20  2  0  0  0  0
 19 21  1  0  0  0  0
 20 32  1  0  0  0  0
 21 33  1  0  0  0  0
 22 25  2  0  0  0  0
 22 34  1  0  0  0  0
 23 35  1  0  0  0  0
 23 36  1  0  0  0  0
 23 37  1  0  0  0  0
 24 26  2  0  0  0  0
 24 38  1  0  0  0  0
 25 26  1  0  0  0  0
 25 39  1  0  0  0  0
 26 40  1  0  0  0  0
M  CHG  1   4   1
M  CHG  1  10  -1
M  END
>  <$CLUSTER>
436

>  <INDEX>
288667

$$$$
Life Chemicals F0698-0276
  MOE2020           3D

 41 43  0  0  0  0  0  0  0  0999 V2000
    0.4950    2.0320    0.2400 N   0  0  0  0  0  0  0  0  0  0  0  0
    0.7270    0.7950   -0.3610 C   0  0  0  0  0  0  0  0  0  0  0  0
    1.7850    0.6560   -1.1700 N   0  0  0  0  0  0  0  0  0  0  0  0
    1.4480    2.8580   -0.1320 C   0  0  0  0  0  0  0  0  0  0  0  0
    2.5750    2.1260   -1.1900 S   0  0  0  0  0  0  0  0  0  0  0  0
   -0.2080   -0.3000   -0.1170 C   0  0  0  0  0  0  0  0  0  0  0  0
    0.2730    3.8790    2.7620 C   0  0  0  0  0  0  0  0  0  0  0  0
    1.5580    4.5210    0.3910 S   0  0  0  0  0  0  0  0  0  0  0  0
    0.7190    4.6150    3.8070 N   0  0  0  0  0  0  0  0  0  0  0  0
   -0.6670   -0.6260    1.1770 C   0  0  0  0  0  0  0  0  0  0  0  0
    0.0890    2.6690    2.8320 O   0  0  0  0  0  0  0  0  0  0  0  0
    0.1120    4.6640    1.4640 C   0  0  0  0  0  0  0  0  0  0  0  0
    0.9970    4.2860    5.1420 C   0  0  0  0  0  0  0  0  0  0  0  0
    1.5900    3.7080    7.8270 C   0  0  0  0  0  0  0  0  0  0  0  0
    0.8730    2.9820    5.6300 C   0  0  0  0  0  0  0  0  0  0  0  0
    1.4220    5.2980    6.0180 C   0  0  0  0  0  0  0  0  0  0  0  0
    1.7160    5.0100    7.3520 C   0  0  0  0  0  0  0  0  0  0  0  0
    1.1680    2.6970    6.9670 C   0  0  0  0  0  0  0  0  0  0  0  0
   -0.6610   -1.0490   -1.2180 C   0  0  0  0  0  0  0  0  0  0  0  0
   -0.2230    0.1110    2.4120 C   0  0  0  0  0  0  0  0  0  0  0  0
   -1.5930   -1.6740    1.3270 C   0  0  0  0  0  0  0  0  0  0  0  0
    1.9030    3.3990    9.2540 C   0  0  0  0  0  0  0  0  0  0  0  0
   -1.5700   -2.0940   -1.0470 C   0  0  0  0  0  0  0  0  0  0  0  0
   -2.0390   -2.4030    0.2240 C   0  0  0  0  0  0  0  0  0  0  0  0
    0.8830    5.5860    3.5830 H   0  0  0  0  0  0  0  0  0  0  0  0
   -0.0410    5.7150    1.7070 H   0  0  0  0  0  0  0  0  0  0  0  0
   -0.7590    4.2840    0.9300 H   0  0  0  0  0  0  0  0  0  0  0  0
    0.5480    2.1900    4.9710 H   0  0  0  0  0  0  0  0  0  0  0  0
    1.5230    6.3100    5.6560 H   0  0  0  0  0  0  0  0  0  0  0  0
    2.0410    5.7980    8.0150 H   0  0  0  0  0  0  0  0  0  0  0  0
    1.0680    1.6870    7.3350 H   0  0  0  0  0  0  0  0  0  0  0  0
   -0.3010   -0.8120   -2.2080 H   0  0  0  0  0  0  0  0  0  0  0  0
    0.4890    0.8880    2.1350 H   0  0  0  0  0  0  0  0  0  0  0  0
    0.2510   -0.5880    3.1010 H   0  0  0  0  0  0  0  0  0  0  0  0
   -1.0880    0.5660    2.8940 H   0  0  0  0  0  0  0  0  0  0  0  0
   -1.9650   -1.9180    2.3110 H   0  0  0  0  0  0  0  0  0  0  0  0
    2.2140    4.3110    9.7630 H   0  0  0  0  0  0  0  0  0  0  0  0
    2.7080    2.6650    9.2990 H   0  0  0  0  0  0  0  0  0  0  0  0
    1.0160    2.9950    9.7410 H   0  0  0  0  0  0  0  0  0  0  0  0
   -1.9080   -2.6620   -1.9010 H   0  0  0  0  0  0  0  0  0  0  0  0
   -2.7480   -3.2070    0.3580 H   0  0  0  0  0  0  0  0  0  0  0  0
  1  2  1  0  0  0  0
  1  4  2  0  0  0  0
  2  3  2  0  0  0  0
  2  6  1  0  0  0  0
  3  5  1  0  0  0  0
  4  5  1  0  0  0  0
  4  8  1  0  0  0  0
  6 10  2  0  0  0  0
  6 19  1  0  0  0  0
  7  9  1  0  0  0  0
  7 11  2  0  0  0  0
  7 12  1  0  0  0  0
  8 12  1  0  0  0  0
  9 13  1  0  0  0  0
  9 25  1  0  0  0  0
 10 20  1  0  0  0  0
 10 21  1  0  0  0  0
 12 26  1  0  0  0  0
 12 27  1  0  0  0  0
 13 15  1  0  0  0  0
 13 16  2  0  0  0  0
 14 17  2  0  0  0  0
 14 18  1  0  0  0  0
 14 22  1  0  0  0  0
 15 18  2  0  0  0  0
 15 28  1  0  0  0  0
 16 17  1  0  0  0  0
 16 29  1  0  0  0  0
 17 30  1  0  0  0  0
 18 31  1  0  0  0  0
 19 23  2  0  0  0  0
 19 32  1  0  0  0  0
 20 33  1  0  0  0  0
 20 34  1  0  0  0  0
 20 35  1  0  0  0  0
 21 24  2  0  0  0  0
 21 36  1  0  0  0  0
 22 37  1  0  0  0  0
 22 38  1  0  0  0  0
 22 39  1  0  0  0  0
 23 24  1  0  0  0  0
 23 40  1  0  0  0  0
 24 41  1  0  0  0  0
M  END
>  <$CLUSTER>
437

>  <INDEX>
288645

$$$$
Life Chemicals F0699-0081
  MOE2020           3D

 33 36  0  0  0  0  0  0  0  0999 V2000
    0.3840   -1.0660    0.0730 C   0  0  0  0  0  0  0  0  0  0  0  0
   -0.7730   -0.3460    0.1890 C   0  0  0  0  0  0  0  0  0  0  0  0
    0.4890   -2.4800    0.2300 C   0  0  0  0  0  0  0  0  0  0  0  0
   -0.7670   -3.0140    0.5190 N   0  0  0  0  0  0  0  0  0  0  0  0
    1.4310   -0.2550   -0.2130 O   0  0  0  0  0  0  0  0  0  0  0  0
   -2.0080   -0.9410    0.4810 N   0  0  0  0  0  0  0  0  0  0  0  0
   -0.4620    1.0060   -0.0350 C   0  0  0  0  0  0  0  0  0  0  0  0
   -1.9180   -2.2320    0.6260 C   0  0  0  0  0  0  0  0  0  0  0  0
    0.9160    1.0140   -0.2800 C   0  0  0  0  0  0  0  0  0  0  0  0
   -0.8990   -4.4820    0.7340 C   0  0  0  0  0  0  0  0  0  0  0  0
    1.5180   -3.1370    0.1300 O   0  0  0  0  0  0  0  0  0  0  0  0
   -1.1890   -5.2110   -0.5710 C   0  0  0  0  0  0  0  0  0  0  0  0
   -0.1560   -5.8470   -1.2680 C   0  0  0  0  0  0  0  0  0  0  0  0
   -0.4280   -6.5270   -2.4590 C   0  0  0  0  0  0  0  0  0  0  0  0
    0.5000   -7.1640   -3.1750 F   0  0  0  0  0  0  0  0  0  0  0  0
   -1.1590    2.2260   -0.0630 C   0  0  0  0  0  0  0  0  0  0  0  0
    1.6470    2.1690   -0.5530 C   0  0  0  0  0  0  0  0  0  0  0  0
   -2.7590   -5.9190   -2.2790 C   0  0  0  0  0  0  0  0  0  0  0  0
   -2.4900   -5.2380   -1.0880 C   0  0  0  0  0  0  0  0  0  0  0  0
   -1.7290   -6.5650   -2.9620 C   0  0  0  0  0  0  0  0  0  0  0  0
   -0.4450    3.4010   -0.3360 C   0  0  0  0  0  0  0  0  0  0  0  0
    0.9320    3.3700   -0.5760 C   0  0  0  0  0  0  0  0  0  0  0  0
   -2.8350   -2.7550    0.8540 H   0  0  0  0  0  0  0  0  0  0  0  0
   -1.7160   -4.6660    1.4320 H   0  0  0  0  0  0  0  0  0  0  0  0
    0.0310   -4.8640    1.1540 H   0  0  0  0  0  0  0  0  0  0  0  0
    0.8530   -5.8130   -0.8850 H   0  0  0  0  0  0  0  0  0  0  0  0
   -2.2230    2.2580    0.1220 H   0  0  0  0  0  0  0  0  0  0  0  0
    2.7110    2.1380   -0.7370 H   0  0  0  0  0  0  0  0  0  0  0  0
   -3.7650   -5.9450   -2.6700 H   0  0  0  0  0  0  0  0  0  0  0  0
   -3.2880   -4.7310   -0.5650 H   0  0  0  0  0  0  0  0  0  0  0  0
   -1.9380   -7.0940   -3.8800 H   0  0  0  0  0  0  0  0  0  0  0  0
   -0.9670    4.3460   -0.3610 H   0  0  0  0  0  0  0  0  0  0  0  0
    1.4540    4.2930   -0.7830 H   0  0  0  0  0  0  0  0  0  0  0  0
  1  2  2  0  0  0  0
  1  3  1  0  0  0  0
  1  5  1  0  0  0  0
  2  6  1  0  0  0  0
  2  7  1  0  0  0  0
  3  4  1  0  0  0  0
  3 11  2  0  0  0  0
  4  8  1  0  0  0  0
  4 10  1  0  0  0  0
  5  9  1  0  0  0  0
  6  8  2  0  0  0  0
  7  9  2  0  0  0  0
  7 16  1  0  0  0  0
  8 23  1  0  0  0  0
  9 17  1  0  0  0  0
 10 12  1  0  0  0  0
 10 24  1  0  0  0  0
 10 25  1  0  0  0  0
 12 13  2  0  0  0  0
 12 19  1  0  0  0  0
 13 14  1  0  0  0  0
 13 26  1  0  0  0  0
 14 15  1  0  0  0  0
 14 20  2  0  0  0  0
 16 21  2  0  0  0  0
 16 27  1  0  0  0  0
 17 22  2  0  0  0  0
 17 28  1  0  0  0  0
 18 19  2  0  0  0  0
 18 20  1  0  0  0  0
 18 29  1  0  0  0  0
 19 30  1  0  0  0  0
 20 31  1  0  0  0  0
 21 22  1  0  0  0  0
 21 32  1  0  0  0  0
 22 33  1  0  0  0  0
M  END
>  <$CLUSTER>
438

>  <INDEX>
288855

$$$$
Life Chemicals F0541-1388
  MOE2020           3D

 38 41  0  0  0  0  0  0  0  0999 V2000
    0.9100    0.0670    0.2250 C   0  0  0  0  0  0  0  0  0  0  0  0
   -0.0990   -0.3270   -0.6770 N   0  0  0  0  0  0  0  0  0  0  0  0
    0.4240   -0.9910   -1.7530 N   0  0  0  0  0  0  0  0  0  0  0  0
    2.0460   -0.5880   -0.2020 C   0  0  0  0  0  0  0  0  0  0  0  0
    0.6790    0.9830    1.2390 N   0  0  0  0  0  0  0  0  0  0  0  0
    1.6850   -1.1980   -1.4080 C   0  0  0  0  0  0  0  0  0  0  0  0
    1.5840    1.3030    2.2380 C   0  0  0  0  0  0  0  0  0  0  0  0
   -1.5120   -0.1500   -0.6080 C   0  0  0  0  0  0  0  0  0  0  0  0
    4.2420   -1.7180   -1.1610 S   0  0  0  0  0  0  0  0  0  0  0  0
    1.0360    2.3780    3.1440 C   0  0  0  0  0  0  0  0  0  0  0  0
    2.6860    0.8090    2.4490 O   0  0  0  0  0  0  0  0  0  0  0  0
    3.4610   -0.7100    0.1940 C   0  0  0  0  0  0  0  0  0  0  0  0
    2.7060   -1.9220   -2.1790 C   0  0  0  0  0  0  0  0  0  0  0  0
   -2.2680   -0.2110   -1.7900 C   0  0  0  0  0  0  0  0  0  0  0  0
   -2.1720    0.0220    0.6140 C   0  0  0  0  0  0  0  0  0  0  0  0
    2.0110    3.1510    3.8510 C   0  0  0  0  0  0  0  0  0  0  0  0
   -0.2980    2.6170    3.3670 C   0  0  0  0  0  0  0  0  0  0  0  0
    0.2370    4.3970    4.9180 C   0  0  0  0  0  0  0  0  0  0  0  0
   -4.3020    0.1400   -0.5320 C   0  0  0  0  0  0  0  0  0  0  0  0
    1.5960    4.1590    4.7240 C   0  0  0  0  0  0  0  0  0  0  0  0
   -3.6550   -0.0570   -1.7490 C   0  0  0  0  0  0  0  0  0  0  0  0
   -0.7080    3.6260    4.2430 C   0  0  0  0  0  0  0  0  0  0  0  0
   -3.5610    0.1730    0.6480 C   0  0  0  0  0  0  0  0  0  0  0  0
   -5.6250    0.2880   -0.5820 F   0  0  0  0  0  0  0  0  0  0  0  0
   -0.2550    5.6320    5.9810 Cl  0  0  0  0  0  0  0  0  0  0  0  0
   -0.2150    1.4520    1.2510 H   0  0  0  0  0  0  0  0  0  0  0  0
    3.5500   -1.2200    1.1530 H   0  0  0  0  0  0  0  0  0  0  0  0
    3.9280    0.2730    0.2610 H   0  0  0  0  0  0  0  0  0  0  0  0
    2.8330   -1.4810   -3.1680 H   0  0  0  0  0  0  0  0  0  0  0  0
    2.4430   -2.9750   -2.2810 H   0  0  0  0  0  0  0  0  0  0  0  0
   -1.7740   -0.3780   -2.7360 H   0  0  0  0  0  0  0  0  0  0  0  0
   -1.6060    0.0380    1.5340 H   0  0  0  0  0  0  0  0  0  0  0  0
    3.0640    2.9560    3.7100 H   0  0  0  0  0  0  0  0  0  0  0  0
   -1.0390    2.0180    2.8590 H   0  0  0  0  0  0  0  0  0  0  0  0
    2.3290    4.7540    5.2490 H   0  0  0  0  0  0  0  0  0  0  0  0
   -4.2280   -0.0910   -2.6640 H   0  0  0  0  0  0  0  0  0  0  0  0
   -1.7610    3.8090    4.3980 H   0  0  0  0  0  0  0  0  0  0  0  0
   -4.0630    0.3160    1.5940 H   0  0  0  0  0  0  0  0  0  0  0  0
  1  2  1  0  0  0  0
  1  4  2  0  0  0  0
  1  5  1  0  0  0  0
  2  3  1  0  0  0  0
  2  8  1  0  0  0  0
  3  6  2  0  0  0  0
  4  6  1  0  0  0  0
  4 12  1  0  0  0  0
  5  7  1  0  0  0  0
  5 26  1  0  0  0  0
  6 13  1  0  0  0  0
  7 10  1  0  0  0  0
  7 11  2  0  0  0  0
  8 14  2  0  0  0  0
  8 15  1  0  0  0  0
  9 12  1  0  0  0  0
  9 13  1  0  0  0  0
 10 16  2  0  0  0  0
 10 17  1  0  0  0  0
 12 27  1  0  0  0  0
 12 28  1  0  0  0  0
 13 29  1  0  0  0  0
 13 30  1  0  0  0  0
 14 21  1  0  0  0  0
 14 31  1  0  0  0  0
 15 23  2  0  0  0  0
 15 32  1  0  0  0  0
 16 20  1  0  0  0  0
 16 33  1  0  0  0  0
 17 22  2  0  0  0  0
 17 34  1  0  0  0  0
 18 20  2  0  0  0  0
 18 22  1  0  0  0  0
 18 25  1  0  0  0  0
 19 21  2  0  0  0  0
 19 23  1  0  0  0  0
 19 24  1  0  0  0  0
 20 35  1  0  0  0  0
 21 36  1  0  0  0  0
 22 37  1  0  0  0  0
 23 38  1  0  0  0  0
M  END
>  <$CLUSTER>
439

>  <INDEX>
273160

$$$$
Life Chemicals F0778-0231
  MOE2020           3D

 48 51  0  0  0  0  0  0  0  0999 V2000
    0.9100    0.0670    0.2250 C   0  0  0  0  0  0  0  0  0  0  0  0
   -0.0990   -0.3270   -0.6770 N   0  0  0  0  0  0  0  0  0  0  0  0
    0.4240   -0.9910   -1.7530 N   0  0  0  0  0  0  0  0  0  0  0  0
    2.0460   -0.5880   -0.2020 C   0  0  0  0  0  0  0  0  0  0  0  0
    0.6790    0.9830    1.2390 N   0  0  0  0  0  0  0  0  0  0  0  0
    1.6850   -1.1980   -1.4080 C   0  0  0  0  0  0  0  0  0  0  0  0
   -5.7130    0.3120   -0.4580 N   0  3  0  0  0  0  0  0  0  0  0  0
    1.5840    1.3030    2.2380 C   0  0  0  0  0  0  0  0  0  0  0  0
    1.0360    2.3780    3.1440 C   0  0  0  0  0  0  0  0  0  0  0  0
   -1.5120   -0.1500   -0.6080 C   0  0  0  0  0  0  0  0  0  0  0  0
   -4.3020    0.1400   -0.5320 C   0  0  0  0  0  0  0  0  0  0  0  0
    2.0110    3.1510    3.8510 C   0  0  0  0  0  0  0  0  0  0  0  0
    1.5960    4.1590    4.7240 C   0  0  0  0  0  0  0  0  0  0  0  0
    4.2420   -1.7180   -1.1610 S   0  0  0  0  0  0  0  0  0  0  0  0
   -6.2780    0.4870    0.6360 O   0  5  0  0  0  0  0  0  0  0  0  0
   -6.3140    0.2720   -1.5440 O   0  0  0  0  0  0  0  0  0  0  0  0
    2.6860    0.8090    2.4490 O   0  0  0  0  0  0  0  0  0  0  0  0
    0.2370    4.3970    4.9180 C   0  0  0  0  0  0  0  0  0  0  0  0
    3.4610   -0.7100    0.1940 C   0  0  0  0  0  0  0  0  0  0  0  0
   -0.2980    2.6170    3.3670 C   0  0  0  0  0  0  0  0  0  0  0  0
   -2.2680   -0.2110   -1.7900 C   0  0  0  0  0  0  0  0  0  0  0  0
   -2.1720    0.0220    0.6140 C   0  0  0  0  0  0  0  0  0  0  0  0
   -3.5610    0.1730    0.6480 C   0  0  0  0  0  0  0  0  0  0  0  0
   -3.6550   -0.0570   -1.7490 C   0  0  0  0  0  0  0  0  0  0  0  0
   -0.7080    3.6260    4.2430 C   0  0  0  0  0  0  0  0  0  0  0  0
    2.7060   -1.9220   -2.1790 C   0  0  0  0  0  0  0  0  0  0  0  0
    2.4640    4.9590    5.4300 O   0  0  0  0  0  0  0  0  0  0  0  0
   -0.0740    5.4050    5.8060 O   0  0  0  0  0  0  0  0  0  0  0  0
    3.8580    4.7410    5.2480 C   0  0  0  0  0  0  0  0  0  0  0  0
   -1.4510    5.6760    6.0350 C   0  0  0  0  0  0  0  0  0  0  0  0
   -0.2150    1.4520    1.2510 H   0  0  0  0  0  0  0  0  0  0  0  0
    3.0640    2.9560    3.7100 H   0  0  0  0  0  0  0  0  0  0  0  0
    3.5500   -1.2200    1.1530 H   0  0  0  0  0  0  0  0  0  0  0  0
    3.9280    0.2730    0.2610 H   0  0  0  0  0  0  0  0  0  0  0  0
   -1.0390    2.0180    2.8590 H   0  0  0  0  0  0  0  0  0  0  0  0
   -1.7740   -0.3780   -2.7360 H   0  0  0  0  0  0  0  0  0  0  0  0
   -1.6060    0.0380    1.5340 H   0  0  0  0  0  0  0  0  0  0  0  0
   -4.0630    0.3160    1.5940 H   0  0  0  0  0  0  0  0  0  0  0  0
   -4.2280   -0.0910   -2.6640 H   0  0  0  0  0  0  0  0  0  0  0  0
   -1.7610    3.8090    4.3980 H   0  0  0  0  0  0  0  0  0  0  0  0
    2.8330   -1.4810   -3.1680 H   0  0  0  0  0  0  0  0  0  0  0  0
    2.4430   -2.9750   -2.2810 H   0  0  0  0  0  0  0  0  0  0  0  0
    4.4190    5.4420    5.8660 H   0  0  0  0  0  0  0  0  0  0  0  0
    4.1160    4.8930    4.2000 H   0  0  0  0  0  0  0  0  0  0  0  0
    4.1070    3.7210    5.5390 H   0  0  0  0  0  0  0  0  0  0  0  0
   -1.5460    6.4900    6.7530 H   0  0  0  0  0  0  0  0  0  0  0  0
   -1.9360    4.7840    6.4310 H   0  0  0  0  0  0  0  0  0  0  0  0
   -1.9260    5.9620    5.0970 H   0  0  0  0  0  0  0  0  0  0  0  0
  1  2  1  0  0  0  0
  1  4  2  0  0  0  0
  1  5  1  0  0  0  0
  2  3  1  0  0  0  0
  2 10  1  0  0  0  0
  3  6  2  0  0  0  0
  4  6  1  0  0  0  0
  4 19  1  0  0  0  0
  5  8  1  0  0  0  0
  5 31  1  0  0  0  0
  6 26  1  0  0  0  0
  7 11  1  0  0  0  0
  7 15  1  0  0  0  0
  7 16  2  0  0  0  0
  8  9  1  0  0  0  0
  8 17  2  0  0  0  0
  9 12  1  0  0  0  0
  9 20  2  0  0  0  0
 10 21  1  0  0  0  0
 10 22  2  0  0  0  0
 11 23  2  0  0  0  0
 11 24  1  0  0  0  0
 12 13  2  0  0  0  0
 12 32  1  0  0  0  0
 13 18  1  0  0  0  0
 13 27  1  0  0  0  0
 14 19  1  0  0  0  0
 14 26  1  0  0  0  0
 18 25  2  0  0  0  0
 18 28  1  0  0  0  0
 19 33  1  0  0  0  0
 19 34  1  0  0  0  0
 20 25  1  0  0  0  0
 20 35  1  0  0  0  0
 21 24  2  0  0  0  0
 21 36  1  0  0  0  0
 22 23  1  0  0  0  0
 22 37  1  0  0  0  0
 23 38  1  0  0  0  0
 24 39  1  0  0  0  0
 25 40  1  0  0  0  0
 26 41  1  0  0  0  0
 26 42  1  0  0  0  0
 27 29  1  0  0  0  0
 28 30  1  0  0  0  0
 29 43  1  0  0  0  0
 29 44  1  0  0  0  0
 29 45  1  0  0  0  0
 30 46  1  0  0  0  0
 30 47  1  0  0  0  0
 30 48  1  0  0  0  0
M  CHG  1   7   1
M  CHG  1  15  -1
M  END
>  <$CLUSTER>
440

>  <INDEX>
289437

$$$$
FCHC 14816
  MOE2020           3D

 37 40  0  0  0  0  0  0  0  0999 V2000
   -3.5560   -0.8800    0.3880 C   0  0  0  0  0  0  0  0  0  0  0  0
   -3.7030   -2.2480   -0.2040 C   0  0  0  0  0  0  0  0  0  0  0  0
   -4.6890   -0.2880    0.8620 C   0  0  0  0  0  0  0  0  0  0  0  0
   -2.2900   -0.0720    0.5220 C   0  0  0  0  0  0  0  0  0  0  0  0
   -5.9720   -0.9260    0.8090 C   0  0  0  0  0  0  0  0  0  0  0  0
   -4.9540   -2.8290   -0.2370 O   0  0  0  0  0  0  0  0  0  0  0  0
   -6.0570   -2.1420    0.2750 C   0  0  0  0  0  0  0  0  0  0  0  0
   -1.1980   -0.7620    0.0120 N   0  0  0  0  0  0  0  0  0  0  0  0
   -7.1630   -0.2600    1.3270 C   0  0  0  0  0  0  0  0  0  0  0  0
   -2.7330   -2.8500   -0.6530 O   0  0  0  0  0  0  0  0  0  0  0  0
   -2.3090    1.0450    1.0290 O   0  0  0  0  0  0  0  0  0  0  0  0
   -7.2800   -2.8470    0.1800 C   0  0  0  0  0  0  0  0  0  0  0  0
   -8.3970   -0.9680    1.2330 C   0  0  0  0  0  0  0  0  0  0  0  0
   -8.4380   -2.2480    0.6620 C   0  0  0  0  0  0  0  0  0  0  0  0
    0.1480   -0.3280   -0.0380 C   0  0  0  0  0  0  0  0  0  0  0  0
    2.8640    0.3670   -0.2190 C   0  0  0  0  0  0  0  0  0  0  0  0
    4.6470    0.8490   -0.3270 Br  0  0  0  0  0  0  0  0  0  0  0  0
    0.5960    0.9080    0.4390 C   0  0  0  0  0  0  0  0  0  0  0  0
    1.0790   -1.2110   -0.6060 C   0  0  0  0  0  0  0  0  0  0  0  0
    1.9490    1.2510    0.3470 C   0  0  0  0  0  0  0  0  0  0  0  0
    2.4290   -0.8660   -0.6960 C   0  0  0  0  0  0  0  0  0  0  0  0
   -7.1960    1.0270    1.9160 C   0  0  0  0  0  0  0  0  0  0  0  0
   -9.5840   -0.3890    1.7120 C   0  0  0  0  0  0  0  0  0  0  0  0
   -8.3860    1.5860    2.3850 C   0  0  0  0  0  0  0  0  0  0  0  0
   -9.5780    0.8800    2.2840 C   0  0  0  0  0  0  0  0  0  0  0  0
   -4.6170    0.6990    1.2940 H   0  0  0  0  0  0  0  0  0  0  0  0
   -1.3860   -1.6790   -0.3670 H   0  0  0  0  0  0  0  0  0  0  0  0
   -7.3130   -3.8330   -0.2590 H   0  0  0  0  0  0  0  0  0  0  0  0
   -9.3790   -2.7740    0.5960 H   0  0  0  0  0  0  0  0  0  0  0  0
   -0.1060    1.6010    0.8800 H   0  0  0  0  0  0  0  0  0  0  0  0
    0.7470   -2.1690   -0.9780 H   0  0  0  0  0  0  0  0  0  0  0  0
    2.2860    2.2080    0.7170 H   0  0  0  0  0  0  0  0  0  0  0  0
    3.1350   -1.5550   -1.1350 H   0  0  0  0  0  0  0  0  0  0  0  0
   -6.2780    1.5900    2.0050 H   0  0  0  0  0  0  0  0  0  0  0  0
  -10.5130   -0.9350    1.6350 H   0  0  0  0  0  0  0  0  0  0  0  0
   -8.3800    2.5710    2.8280 H   0  0  0  0  0  0  0  0  0  0  0  0
  -10.4970    1.3140    2.6480 H   0  0  0  0  0  0  0  0  0  0  0  0
  1  2  1  0  0  0  0
  1  3  2  0  0  0  0
  1  4  1  0  0  0  0
  2  6  1  0  0  0  0
  2 10  2  0  0  0  0
  3  5  1  0  0  0  0
  3 26  1  0  0  0  0
  4  8  1  0  0  0  0
  4 11  2  0  0  0  0
  5  7  2  0  0  0  0
  5  9  1  0  0  0  0
  6  7  1  0  0  0  0
  7 12  1  0  0  0  0
  8 15  1  0  0  0  0
  8 27  1  0  0  0  0
  9 13  2  0  0  0  0
  9 22  1  0  0  0  0
 12 14  2  0  0  0  0
 12 28  1  0  0  0  0
 13 14  1  0  0  0  0
 13 23  1  0  0  0  0
 14 29  1  0  0  0  0
 15 18  2  0  0  0  0
 15 19  1  0  0  0  0
 16 17  1  0  0  0  0
 16 20  2  0  0  0  0
 16 21  1  0  0  0  0
 18 20  1  0  0  0  0
 18 30  1  0  0  0  0
 19 21  2  0  0  0  0
 19 31  1  0  0  0  0
 20 32  1  0  0  0  0
 21 33  1  0  0  0  0
 22 24  2  0  0  0  0
 22 34  1  0  0  0  0
 23 25  2  0  0  0  0
 23 35  1  0  0  0  0
 24 25  1  0  0  0  0
 24 36  1  0  0  0  0
 25 37  1  0  0  0  0
M  END
>  <$CLUSTER>
441

>  <INDEX>
225703

$$$$
Biofocus 293_7591_6670
  MOE2020           3D

 45 48  0  0  0  0  0  0  0  0999 V2000
    0.6410   -0.5630    0.3540 C   0  0  0  0  0  0  0  0  0  0  0  0
   -1.3280    1.1100   -1.0270 N   0  0  0  0  0  0  0  0  0  0  0  0
   -1.9730    1.5480   -2.1440 C   0  0  0  0  0  0  0  0  0  0  0  0
    0.4840   -0.3260    1.7490 O   0  0  0  0  0  0  0  0  0  0  0  0
    1.7420   -1.4520    0.2000 O   0  0  0  0  0  0  0  0  0  0  0  0
    1.4760   -0.3850    2.6050 C   0  0  0  0  0  0  0  0  0  0  0  0
    1.0140    0.7580   -0.3200 C   0  0  0  0  0  0  0  0  0  0  0  0
   -0.6330   -1.1400   -0.2770 C   0  0  0  0  0  0  0  0  0  0  0  0
    2.7380   -0.8140    2.1890 C   0  0  0  0  0  0  0  0  0  0  0  0
   -0.1700    1.7170   -0.3600 C   0  0  0  0  0  0  0  0  0  0  0  0
   -1.7510   -0.1040   -0.3200 C   0  0  0  0  0  0  0  0  0  0  0  0
   -1.4280    2.8200   -2.7780 C   0  0  0  0  0  0  0  0  0  0  0  0
    2.9630   -1.1910    0.7590 C   0  0  0  0  0  0  0  0  0  0  0  0
   -2.9440    0.9690   -2.6390 O   0  0  0  0  0  0  0  0  0  0  0  0
   -2.2040    3.2380   -4.0160 C   0  0  0  0  0  0  0  0  0  0  0  0
   -3.6730    3.9490   -6.2850 C   0  0  0  0  0  0  0  0  0  0  0  0
   -4.3140    4.2470   -7.4170 F   0  0  0  0  0  0  0  0  0  0  0  0
   -3.3220    4.0680   -3.8980 C   0  0  0  0  0  0  0  0  0  0  0  0
   -1.8390    2.7480   -5.2720 C   0  0  0  0  0  0  0  0  0  0  0  0
   -4.0510    4.4280   -5.0320 C   0  0  0  0  0  0  0  0  0  0  0  0
   -2.5690    3.1100   -6.4050 C   0  0  0  0  0  0  0  0  0  0  0  0
    1.2550   -0.0240    3.9350 C   0  0  0  0  0  0  0  0  0  0  0  0
    3.7900   -0.8510    3.1120 C   0  0  0  0  0  0  0  0  0  0  0  0
    3.5710   -0.4840    4.4410 C   0  0  0  0  0  0  0  0  0  0  0  0
    2.3040   -0.0740    4.8520 C   0  0  0  0  0  0  0  0  0  0  0  0
    1.3410    0.5560   -1.3400 H   0  0  0  0  0  0  0  0  0  0  0  0
    1.8280    1.2230    0.2370 H   0  0  0  0  0  0  0  0  0  0  0  0
   -0.9640   -1.9950    0.3120 H   0  0  0  0  0  0  0  0  0  0  0  0
   -0.4100   -1.4640   -1.2940 H   0  0  0  0  0  0  0  0  0  0  0  0
   -0.4470    1.9820    0.6610 H   0  0  0  0  0  0  0  0  0  0  0  0
    0.1200    2.6170   -0.9020 H   0  0  0  0  0  0  0  0  0  0  0  0
   -2.6120   -0.5320   -0.8340 H   0  0  0  0  0  0  0  0  0  0  0  0
   -2.0310    0.1590    0.7000 H   0  0  0  0  0  0  0  0  0  0  0  0
   -0.3880    2.6520   -3.0590 H   0  0  0  0  0  0  0  0  0  0  0  0
   -1.4810    3.6250   -2.0450 H   0  0  0  0  0  0  0  0  0  0  0  0
    3.4450   -0.3690    0.2300 H   0  0  0  0  0  0  0  0  0  0  0  0
    3.5940   -2.0780    0.7040 H   0  0  0  0  0  0  0  0  0  0  0  0
   -3.6230    4.4320   -2.9270 H   0  0  0  0  0  0  0  0  0  0  0  0
   -0.9900    2.0870   -5.3670 H   0  0  0  0  0  0  0  0  0  0  0  0
   -4.9080    5.0780   -4.9390 H   0  0  0  0  0  0  0  0  0  0  0  0
   -2.2770    2.7390   -7.3760 H   0  0  0  0  0  0  0  0  0  0  0  0
    0.2730    0.2940    4.2530 H   0  0  0  0  0  0  0  0  0  0  0  0
    4.7740   -1.1640    2.7950 H   0  0  0  0  0  0  0  0  0  0  0  0
    4.3840   -0.5180    5.1510 H   0  0  0  0  0  0  0  0  0  0  0  0
    2.1350    0.2050    5.8810 H   0  0  0  0  0  0  0  0  0  0  0  0
  1  4  1  0  0  0  0
  1  5  1  0  0  0  0
  1  7  1  0  0  0  0
  1  8  1  0  0  0  0
  2  3  1  0  0  0  0
  2 10  1  0  0  0  0
  2 11  1  0  0  0  0
  3 12  1  0  0  0  0
  3 14  2  0  0  0  0
  4  6  1  0  0  0  0
  5 13  1  0  0  0  0
  6  9  2  0  0  0  0
  6 22  1  0  0  0  0
  7 10  1  0  0  0  0
  7 26  1  0  0  0  0
  7 27  1  0  0  0  0
  8 11  1  0  0  0  0
  8 28  1  0  0  0  0
  8 29  1  0  0  0  0
  9 13  1  0  0  0  0
  9 23  1  0  0  0  0
 10 30  1  0  0  0  0
 10 31  1  0  0  0  0
 11 32  1  0  0  0  0
 11 33  1  0  0  0  0
 12 15  1  0  0  0  0
 12 34  1  0  0  0  0
 12 35  1  0  0  0  0
 13 36  1  0  0  0  0
 13 37  1  0  0  0  0
 15 18  2  0  0  0  0
 15 19  1  0  0  0  0
 16 17  1  0  0  0  0
 16 20  2  0  0  0  0
 16 21  1  0  0  0  0
 18 20  1  0  0  0  0
 18 38  1  0  0  0  0
 19 21  2  0  0  0  0
 19 39  1  0  0  0  0
 20 40  1  0  0  0  0
 21 41  1  0  0  0  0
 22 25  2  0  0  0  0
 22 42  1  0  0  0  0
 23 24  2  0  0  0  0
 23 43  1  0  0  0  0
 24 25  1  0  0  0  0
 24 44  1  0  0  0  0
 25 45  1  0  0  0  0
M  END
>  <$CLUSTER>
442

>  <INDEX>
24293

$$$$
Life Chemicals F1298-0613
  MOE2020           3D

 41 43  0  0  0  0  0  0  0  0999 V2000
    0.7150    0.1810   -0.8020 C   0  0  0  0  0  0  0  0  0  0  0  0
    0.4410   -0.1430    0.5260 C   0  0  0  0  0  0  0  0  0  0  0  0
   -1.5780    0.7870   -0.2040 C   0  0  0  0  0  0  0  0  0  0  0  0
   -0.9210    0.2030    0.8610 C   0  0  0  0  0  0  0  0  0  0  0  0
   -0.6080    0.9100   -1.5830 S   0  0  0  0  0  0  0  0  0  0  0  0
    1.9180   -0.0260   -1.4690 N   0  0  0  0  0  0  0  0  0  0  0  0
   -3.5380    1.2870    1.1860 N   0  0  0  0  0  0  0  0  0  0  0  0
    2.2110    0.2980   -2.7880 C   0  0  0  0  0  0  0  0  0  0  0  0
    1.4340   -0.7800    1.3950 C   0  0  0  0  0  0  0  0  0  0  0  0
   -3.0120    1.2170   -0.1890 C   0  0  0  0  0  0  0  0  0  0  0  0
    3.6290   -0.0890   -3.1320 C   0  0  0  0  0  0  0  0  0  0  0  0
   -4.2670    2.2980    1.7380 C   0  0  0  0  0  0  0  0  0  0  0  0
   -1.6560   -0.0100    2.1540 C   0  0  0  0  0  0  0  0  0  0  0  0
   -3.1800    0.0900    1.9610 C   0  0  0  0  0  0  0  0  0  0  0  0
    4.2280    0.6310   -4.2140 C   0  0  0  0  0  0  0  0  0  0  0  0
    4.3350   -1.1070   -2.5350 C   0  0  0  0  0  0  0  0  0  0  0  0
    1.4880    0.8240   -3.6280 O   0  0  0  0  0  0  0  0  0  0  0  0
    5.6370   -1.4120   -2.9420 C   0  0  0  0  0  0  0  0  0  0  0  0
    5.5290    0.3230   -4.6170 C   0  0  0  0  0  0  0  0  0  0  0  0
    6.2330   -0.6970   -3.9800 C   0  0  0  0  0  0  0  0  0  0  0  0
    2.2490   -1.5980    0.9750 O   0  0  0  0  0  0  0  0  0  0  0  0
   -4.6810    2.2980    2.9000 O   0  0  0  0  0  0  0  0  0  0  0  0
    1.4180   -0.3680    2.7090 N   0  0  0  0  0  0  0  0  0  0  0  0
    6.2670    1.1860   -5.8860 Cl  0  0  0  0  0  0  0  0  0  0  0  0
    6.4840   -2.6650   -2.1580 Cl  0  0  0  0  0  0  0  0  0  0  0  0
   -4.5730    3.4750    0.8460 C   0  0  0  0  0  0  0  0  0  0  0  0
    2.6590   -0.4590   -0.9370 H   0  0  0  0  0  0  0  0  0  0  0  0
   -3.6030    0.5000   -0.7590 H   0  0  0  0  0  0  0  0  0  0  0  0
   -3.0920    2.2020   -0.6500 H   0  0  0  0  0  0  0  0  0  0  0  0
   -1.3390    0.7480    2.8700 H   0  0  0  0  0  0  0  0  0  0  0  0
   -1.4120   -0.9990    2.5410 H   0  0  0  0  0  0  0  0  0  0  0  0
   -3.5310   -0.7950    1.4310 H   0  0  0  0  0  0  0  0  0  0  0  0
   -3.6600    0.1420    2.9380 H   0  0  0  0  0  0  0  0  0  0  0  0
    3.6750    1.4100   -4.7170 H   0  0  0  0  0  0  0  0  0  0  0  0
    3.8770   -1.6780   -1.7410 H   0  0  0  0  0  0  0  0  0  0  0  0
    7.2400   -0.9340   -4.2900 H   0  0  0  0  0  0  0  0  0  0  0  0
    2.0910   -0.7400    3.3630 H   0  0  0  0  0  0  0  0  0  0  0  0
    0.7330    0.3060    3.0180 H   0  0  0  0  0  0  0  0  0  0  0  0
   -4.1340    3.3090   -0.1380 H   0  0  0  0  0  0  0  0  0  0  0  0
   -4.1530    4.3810    1.2830 H   0  0  0  0  0  0  0  0  0  0  0  0
   -5.6530    3.5860    0.7480 H   0  0  0  0  0  0  0  0  0  0  0  0
  1  2  2  0  0  0  0
  1  5  1  0  0  0  0
  1  6  1  0  0  0  0
  2  4  1  0  0  0  0
  2  9  1  0  0  0  0
  3  4  2  0  0  0  0
  3  5  1  0  0  0  0
  3 10  1  0  0  0  0
  4 13  1  0  0  0  0
  6  8  1  0  0  0  0
  6 27  1  0  0  0  0
  7 10  1  0  0  0  0
  7 12  1  0  0  0  0
  7 14  1  0  0  0  0
  8 11  1  0  0  0  0
  8 17  2  0  0  0  0
  9 21  2  0  0  0  0
  9 23  1  0  0  0  0
 10 28  1  0  0  0  0
 10 29  1  0  0  0  0
 11 15  1  0  0  0  0
 11 16  2  0  0  0  0
 12 22  2  0  0  0  0
 12 26  1  0  0  0  0
 13 14  1  0  0  0  0
 13 30  1  0  0  0  0
 13 31  1  0  0  0  0
 14 32  1  0  0  0  0
 14 33  1  0  0  0  0
 15 19  2  0  0  0  0
 15 34  1  0  0  0  0
 16 18  1  0  0  0  0
 16 35  1  0  0  0  0
 18 20  2  0  0  0  0
 18 25  1  0  0  0  0
 19 20  1  0  0  0  0
 19 24  1  0  0  0  0
 20 36  1  0  0  0  0
 23 37  1  0  0  0  0
 23 38  1  0  0  0  0
 26 39  1  0  0  0  0
 26 40  1  0  0  0  0
 26 41  1  0  0  0  0
M  END
>  <$CLUSTER>
443

>  <INDEX>
292010

$$$$
Life Chemicals F1359-1195
  MOE2020           3D

 43 45  0  0  0  0  0  0  0  0999 V2000
   -0.9940   -1.2820    0.0970 C   0  0  0  0  0  0  0  0  0  0  0  0
   -1.7080   -2.2560    0.5630 N   0  0  0  0  0  0  0  0  0  0  0  0
    2.2370    3.6390   -2.7620 S   0  0  0  0  0  0  0  0  0  0  0  0
   -0.0150   -0.5890    0.7950 N   0  0  0  0  0  0  0  0  0  0  0  0
   -1.1380   -0.6290   -1.5730 S   0  0  0  0  0  0  0  0  0  0  0  0
    0.1280    0.5670   -1.2450 C   0  0  0  0  0  0  0  0  0  0  0  0
    0.6060    0.4420    0.0580 C   0  0  0  0  0  0  0  0  0  0  0  0
   -2.7100   -2.8920   -0.3020 C   0  0  0  0  0  0  0  0  0  0  0  0
    1.6180    2.3880   -1.6870 C   0  0  0  0  0  0  0  0  0  0  0  0
    0.6160    1.5250   -2.1280 C   0  0  0  0  0  0  0  0  0  0  0  0
   -3.4300   -3.9670    0.3620 C   0  0  0  0  0  0  0  0  0  0  0  0
    1.6090    1.3130    0.4930 C   0  0  0  0  0  0  0  0  0  0  0  0
    1.2120    3.9390   -3.7480 O   0  0  0  0  0  0  0  0  0  0  0  0
    2.8120    4.7070   -1.9640 O   0  0  0  0  0  0  0  0  0  0  0  0
    3.4920    2.8690   -3.5590 N   0  0  0  0  0  0  0  0  0  0  0  0
   -2.8620   -2.5030   -1.4460 O   0  0  0  0  0  0  0  0  0  0  0  0
    2.1120    2.2830   -0.3820 C   0  0  0  0  0  0  0  0  0  0  0  0
   -3.9920   -4.9350   -0.5210 C   0  0  0  0  0  0  0  0  0  0  0  0
    0.3340   -0.8780    2.1810 C   0  0  0  0  0  0  0  0  0  0  0  0
   -4.7360   -5.9950    0.0020 C   0  0  0  0  0  0  0  0  0  0  0  0
   -5.3990   -7.1760   -1.0300 Cl  0  0  0  0  0  0  0  0  0  0  0  0
   -3.6610   -4.0650    1.7120 C   0  0  0  0  0  0  0  0  0  0  0  0
   -4.4070   -5.1260    2.2300 C   0  0  0  0  0  0  0  0  0  0  0  0
   -0.0760   -0.3080    4.4990 O   0  0  0  0  0  0  0  0  0  0  0  0
   -4.9420   -6.0900    1.3770 C   0  0  0  0  0  0  0  0  0  0  0  0
   -0.4590    0.0070    3.1310 C   0  0  0  0  0  0  0  0  0  0  0  0
   -0.7930    0.5010    5.4380 C   0  0  0  0  0  0  0  0  0  0  0  0
    0.2270    1.5980   -3.1330 H   0  0  0  0  0  0  0  0  0  0  0  0
    1.9940    1.2380    1.4990 H   0  0  0  0  0  0  0  0  0  0  0  0
    3.1220    2.1180   -4.1240 H   0  0  0  0  0  0  0  0  0  0  0  0
    4.1400    2.4920   -2.8820 H   0  0  0  0  0  0  0  0  0  0  0  0
    2.8880    2.9560   -0.0470 H   0  0  0  0  0  0  0  0  0  0  0  0
   -3.8430   -4.8490   -1.5870 H   0  0  0  0  0  0  0  0  0  0  0  0
    1.3990   -0.6960    2.3270 H   0  0  0  0  0  0  0  0  0  0  0  0
    0.1110   -1.9230    2.3960 H   0  0  0  0  0  0  0  0  0  0  0  0
   -3.2620   -3.3150    2.3790 H   0  0  0  0  0  0  0  0  0  0  0  0
   -4.5700   -5.2000    3.2950 H   0  0  0  0  0  0  0  0  0  0  0  0
   -5.5160   -6.9100    1.7820 H   0  0  0  0  0  0  0  0  0  0  0  0
   -1.5250   -0.1770    2.9980 H   0  0  0  0  0  0  0  0  0  0  0  0
   -0.2420    1.0550    2.9220 H   0  0  0  0  0  0  0  0  0  0  0  0
   -0.4850    0.2420    6.4510 H   0  0  0  0  0  0  0  0  0  0  0  0
   -1.8630    0.3240    5.3270 H   0  0  0  0  0  0  0  0  0  0  0  0
   -0.5770    1.5530    5.2500 H   0  0  0  0  0  0  0  0  0  0  0  0
  1  2  2  0  0  0  0
  1  4  1  0  0  0  0
  1  5  1  0  0  0  0
  2  8  1  0  0  0  0
  3  9  1  0  0  0  0
  3 13  2  0  0  0  0
  3 14  2  0  0  0  0
  3 15  1  0  0  0  0
  4  7  1  0  0  0  0
  4 19  1  0  0  0  0
  5  6  1  0  0  0  0
  6  7  1  0  0  0  0
  6 10  2  0  0  0  0
  7 12  2  0  0  0  0
  8 11  1  0  0  0  0
  8 16  2  0  0  0  0
  9 10  1  0  0  0  0
  9 17  2  0  0  0  0
 10 28  1  0  0  0  0
 11 18  2  0  0  0  0
 11 22  1  0  0  0  0
 12 17  1  0  0  0  0
 12 29  1  0  0  0  0
 15 30  1  0  0  0  0
 15 31  1  0  0  0  0
 17 32  1  0  0  0  0
 18 20  1  0  0  0  0
 18 33  1  0  0  0  0
 19 26  1  0  0  0  0
 19 34  1  0  0  0  0
 19 35  1  0  0  0  0
 20 21  1  0  0  0  0
 20 25  2  0  0  0  0
 22 23  2  0  0  0  0
 22 36  1  0  0  0  0
 23 25  1  0  0  0  0
 23 37  1  0  0  0  0
 24 26  1  0  0  0  0
 24 27  1  0  0  0  0
 25 38  1  0  0  0  0
 26 39  1  0  0  0  0
 26 40  1  0  0  0  0
 27 41  1  0  0  0  0
 27 42  1  0  0  0  0
 27 43  1  0  0  0  0
M  END
>  <$CLUSTER>
444

>  <INDEX>
292670

$$$$
InterBioScreen STOCK5S-70232
  MOE2020           3D

 51 54  0  0  1  0  0  0  0  0999 V2000
   -1.4110    0.0410   -0.1400 C   0  0  0  0  0  0  0  0  0  0  0  0
   -0.2860    3.9420   -1.6230 S   0  0  0  0  0  0  0  0  0  0  0  0
   -0.0400    0.2710   -0.2950 N   0  0  0  0  0  0  0  0  0  0  0  0
    0.3100    1.3820   -1.1950 C   0  0  3  0  0  0  0  0  0  0  0  0
   -0.7920    1.4190   -2.2660 C   0  0  3  0  0  0  0  0  0  0  0  0
   -1.9900   -0.6990    0.7430 N   0  0  0  0  0  0  0  0  0  0  0  0
   -2.3140    0.9830   -1.3630 S   0  0  0  0  0  0  0  0  0  0  0  0
    0.2910    2.7280   -0.4520 C   0  0  0  0  0  0  0  0  0  0  0  0
   -0.8090    2.8040   -2.8920 C   0  0  0  0  0  0  0  0  0  0  0  0
   -3.4360   -0.8330    0.7870 C   0  0  0  0  0  0  0  0  0  0  0  0
    0.9930   -0.4630    0.3310 C   0  0  0  0  0  0  0  0  0  0  0  0
   -1.4560    4.5950   -1.0730 O   0  0  0  0  0  0  0  0  0  0  0  0
    0.8530    4.6880   -2.1160 O   0  0  0  0  0  0  0  0  0  0  0  0
   -4.1170   -0.2280   -0.0360 O   0  0  0  0  0  0  0  0  0  0  0  0
    2.2660    0.0900    0.5710 C   0  0  0  0  0  0  0  0  0  0  0  0
    0.8050   -1.7990    0.7370 C   0  0  0  0  0  0  0  0  0  0  0  0
   -3.9150   -1.7020    1.8410 C   0  0  0  0  0  0  0  0  0  0  0  0
    3.0620   -1.9530    1.5900 C   0  0  0  0  0  0  0  0  0  0  0  0
    1.8220   -2.5330    1.3590 C   0  0  0  0  0  0  0  0  0  0  0  0
    3.2850   -0.6410    1.1940 C   0  0  0  0  0  0  0  0  0  0  0  0
   -5.4250   -1.8240    1.8670 C   0  0  0  0  0  0  0  0  0  0  0  0
   -5.9370   -2.7410    2.9780 C   0  0  0  0  0  0  0  0  0  0  0  0
    4.1310   -2.5630    2.1820 O   0  0  0  0  0  0  0  0  0  0  0  0
   -6.1990   -2.2210    4.2450 C   0  0  0  0  0  0  0  0  0  0  0  0
   -6.0720   -4.1080    2.7460 C   0  0  0  0  0  0  0  0  0  0  0  0
    3.9510   -3.9110    2.6030 C   0  0  0  0  0  0  0  0  0  0  0  0
   -6.5040   -4.9500    3.7710 C   0  0  0  0  0  0  0  0  0  0  0  0
   -6.6300   -3.0640    5.2690 C   0  0  0  0  0  0  0  0  0  0  0  0
   -6.7840   -4.4280    5.0310 C   0  0  0  0  0  0  0  0  0  0  0  0
    1.3080    1.2330   -1.6060 H   0  0  0  0  0  0  0  0  0  0  0  0
   -0.6540    0.7280   -3.0980 H   0  0  0  0  0  0  0  0  0  0  0  0
   -0.3840    2.6770    0.4020 H   0  0  0  0  0  0  0  0  0  0  0  0
    1.2930    2.9830   -0.1080 H   0  0  0  0  0  0  0  0  0  0  0  0
   -0.1230    2.8430   -3.7380 H   0  0  0  0  0  0  0  0  0  0  0  0
   -1.8160    3.0520   -3.2290 H   0  0  0  0  0  0  0  0  0  0  0  0
    2.4620    1.1070    0.2660 H   0  0  0  0  0  0  0  0  0  0  0  0
   -0.1510   -2.2700    0.5630 H   0  0  0  0  0  0  0  0  0  0  0  0
   -3.5820   -1.3020    2.7990 H   0  0  0  0  0  0  0  0  0  0  0  0
   -3.4890   -2.6940    1.6940 H   0  0  0  0  0  0  0  0  0  0  0  0
    1.6410   -3.5540    1.6600 H   0  0  0  0  0  0  0  0  0  0  0  0
    4.2480   -0.1830    1.3670 H   0  0  0  0  0  0  0  0  0  0  0  0
   -5.7570   -2.2230    0.9080 H   0  0  0  0  0  0  0  0  0  0  0  0
   -5.8500   -0.8310    2.0140 H   0  0  0  0  0  0  0  0  0  0  0  0
   -6.0680   -1.1660    4.4330 H   0  0  0  0  0  0  0  0  0  0  0  0
   -5.8420   -4.5160    1.7730 H   0  0  0  0  0  0  0  0  0  0  0  0
    4.8730   -4.2760    3.0560 H   0  0  0  0  0  0  0  0  0  0  0  0
    3.6990   -4.5300    1.7420 H   0  0  0  0  0  0  0  0  0  0  0  0
    3.1430   -3.9590    3.3340 H   0  0  0  0  0  0  0  0  0  0  0  0
   -6.6210   -6.0080    3.5870 H   0  0  0  0  0  0  0  0  0  0  0  0
   -6.8440   -2.6590    6.2470 H   0  0  0  0  0  0  0  0  0  0  0  0
   -7.1200   -5.0800    5.8230 H   0  0  0  0  0  0  0  0  0  0  0  0
  1  3  1  0  0  0  0
  1  6  2  0  0  0  0
  1  7  1  0  0  0  0
  2  8  1  0  0  0  0
  2  9  1  0  0  0  0
  2 12  2  0  0  0  0
  2 13  2  0  0  0  0
  3  4  1  0  0  0  0
  3 11  1  0  0  0  0
  4  5  1  0  0  0  0
  4  8  1  0  0  0  0
  4 30  1  0  0  0  0
  5  7  1  0  0  0  0
  5  9  1  0  0  0  0
  5 31  1  0  0  0  0
  6 10  1  0  0  0  0
  8 32  1  0  0  0  0
  8 33  1  0  0  0  0
  9 34  1  0  0  0  0
  9 35  1  0  0  0  0
 10 14  2  0  0  0  0
 10 17  1  0  0  0  0
 11 15  1  0  0  0  0
 11 16  2  0  0  0  0
 15 20  2  0  0  0  0
 15 36  1  0  0  0  0
 16 19  1  0  0  0  0
 16 37  1  0  0  0  0
 17 21  1  0  0  0  0
 17 38  1  0  0  0  0
 17 39  1  0  0  0  0
 18 19  2  0  0  0  0
 18 20  1  0  0  0  0
 18 23  1  0  0  0  0
 19 40  1  0  0  0  0
 20 41  1  0  0  0  0
 21 22  1  0  0  0  0
 21 42  1  0  0  0  0
 21 43  1  0  0  0  0
 22 24  1  0  0  0  0
 22 25  2  0  0  0  0
 23 26  1  0  0  0  0
 24 28  2  0  0  0  0
 24 44  1  0  0  0  0
 25 27  1  0  0  0  0
 25 45  1  0  0  0  0
 26 46  1  0  0  0  0
 26 47  1  0  0  0  0
 26 48  1  0  0  0  0
 27 29  2  0  0  0  0
 27 49  1  0  0  0  0
 28 29  1  0  0  0  0
 28 50  1  0  0  0  0
 29 51  1  0  0  0  0
M  END
>  <$CLUSTER>
445

>  <INDEX>
385472

$$$$
Life Chemicals F1605-0499
  MOE2020           3D

 45 49  0  0  0  0  0  0  0  0999 V2000
   -1.0310    0.1570   -0.1360 C   0  0  0  0  0  0  0  0  0  0  0  0
    0.3050   -0.1330    0.0180 C   0  0  0  0  0  0  0  0  0  0  0  0
   -1.5410   -1.0230   -0.6130 N   0  0  0  0  0  0  0  0  0  0  0  0
   -1.8020    1.2460    0.0890 N   0  0  0  0  0  0  0  0  0  0  0  0
    1.5050    0.9320    0.5870 S   0  0  0  0  0  0  0  0  0  0  0  0
    0.5610   -1.4230   -0.3400 N   0  0  0  0  0  0  0  0  0  0  0  0
   -0.5870   -1.9690   -0.7240 N   0  0  0  0  0  0  0  0  0  0  0  0
   -3.0960    1.1750   -0.1500 C   0  0  0  0  0  0  0  0  0  0  0  0
   -3.7060   -0.0630   -0.7630 C   0  0  0  0  0  0  0  0  0  0  0  0
   -2.8840   -1.1830   -0.9470 C   0  0  0  0  0  0  0  0  0  0  0  0
   -3.8890    2.2790    0.1810 N   0  0  0  0  0  0  0  0  0  0  0  0
    3.0160    0.0080    0.5330 C   0  0  0  0  0  0  0  0  0  0  0  0
    1.5540    1.9810   -0.4080 O   0  0  0  0  0  0  0  0  0  0  0  0
    1.1440    1.1730    1.9680 O   0  0  0  0  0  0  0  0  0  0  0  0
   -4.6880    4.4240    1.9150 O   0  0  0  0  0  0  0  0  0  0  0  0
    3.5690   -0.4560    1.7050 C   0  0  0  0  0  0  0  0  0  0  0  0
    3.6080   -0.1910   -0.7090 C   0  0  0  0  0  0  0  0  0  0  0  0
   -5.0230   -0.1290   -1.2180 C   0  0  0  0  0  0  0  0  0  0  0  0
    5.3910   -1.3810    0.4080 C   0  0  0  0  0  0  0  0  0  0  0  0
    4.7710   -1.1610    1.6390 C   0  0  0  0  0  0  0  0  0  0  0  0
    4.8090   -0.8960   -0.7640 C   0  0  0  0  0  0  0  0  0  0  0  0
    6.8570   -2.2450    0.3510 Cl  0  0  0  0  0  0  0  0  0  0  0  0
   -3.3650   -2.3750   -1.4910 C   0  0  0  0  0  0  0  0  0  0  0  0
   -3.4120    3.6340   -0.0840 C   0  0  0  0  0  0  0  0  0  0  0  0
   -5.1580    2.1920    0.8910 C   0  0  0  0  0  0  0  0  0  0  0  0
   -5.0830    3.0600    2.1780 C   0  0  0  0  0  0  0  0  0  0  0  0
   -3.4110    4.4410    1.2440 C   0  0  0  0  0  0  0  0  0  0  0  0
   -5.5170   -1.3170   -1.7690 C   0  0  0  0  0  0  0  0  0  0  0  0
   -4.6960   -2.4390   -1.8930 C   0  0  0  0  0  0  0  0  0  0  0  0
    3.0840   -0.2780    2.6530 H   0  0  0  0  0  0  0  0  0  0  0  0
    3.1490    0.1910   -1.6090 H   0  0  0  0  0  0  0  0  0  0  0  0
   -5.6630    0.7380   -1.1450 H   0  0  0  0  0  0  0  0  0  0  0  0
    5.2240   -1.5380    2.5440 H   0  0  0  0  0  0  0  0  0  0  0  0
    5.2900   -1.0670   -1.7160 H   0  0  0  0  0  0  0  0  0  0  0  0
   -2.7160   -3.2320   -1.5980 H   0  0  0  0  0  0  0  0  0  0  0  0
   -4.0700    4.1180   -0.8050 H   0  0  0  0  0  0  0  0  0  0  0  0
   -2.4000    3.5930   -0.4870 H   0  0  0  0  0  0  0  0  0  0  0  0
   -5.3540    1.1550    1.1620 H   0  0  0  0  0  0  0  0  0  0  0  0
   -5.9600    2.5580    0.2500 H   0  0  0  0  0  0  0  0  0  0  0  0
   -6.0660    3.0670    2.6500 H   0  0  0  0  0  0  0  0  0  0  0  0
   -4.3570    2.6130    2.8570 H   0  0  0  0  0  0  0  0  0  0  0  0
   -2.6630    4.0120    1.9100 H   0  0  0  0  0  0  0  0  0  0  0  0
   -3.1490    5.4750    1.0220 H   0  0  0  0  0  0  0  0  0  0  0  0
   -6.5430   -1.3660   -2.1010 H   0  0  0  0  0  0  0  0  0  0  0  0
   -5.0930   -3.3570   -2.3010 H   0  0  0  0  0  0  0  0  0  0  0  0
  1  2  2  0  0  0  0
  1  3  1  0  0  0  0
  1  4  1  0  0  0  0
  2  5  1  0  0  0  0
  2  6  1  0  0  0  0
  3  7  1  0  0  0  0
  3 10  1  0  0  0  0
  4  8  2  0  0  0  0
  5 12  1  0  0  0  0
  5 13  2  0  0  0  0
  5 14  2  0  0  0  0
  6  7  2  0  0  0  0
  8  9  1  0  0  0  0
  8 11  1  0  0  0  0
  9 10  2  0  0  0  0
  9 18  1  0  0  0  0
 10 23  1  0  0  0  0
 11 24  1  0  0  0  0
 11 25  1  0  0  0  0
 12 16  2  0  0  0  0
 12 17  1  0  0  0  0
 15 26  1  0  0  0  0
 15 27  1  0  0  0  0
 16 20  1  0  0  0  0
 16 30  1  0  0  0  0
 17 21  2  0  0  0  0
 17 31  1  0  0  0  0
 18 28  2  0  0  0  0
 18 32  1  0  0  0  0
 19 20  2  0  0  0  0
 19 21  1  0  0  0  0
 19 22  1  0  0  0  0
 20 33  1  0  0  0  0
 21 34  1  0  0  0  0
 23 29  2  0  0  0  0
 23 35  1  0  0  0  0
 24 27  1  0  0  0  0
 24 36  1  0  0  0  0
 24 37  1  0  0  0  0
 25 26  1  0  0  0  0
 25 38  1  0  0  0  0
 25 39  1  0  0  0  0
 26 40  1  0  0  0  0
 26 41  1  0  0  0  0
 27 42  1  0  0  0  0
 27 43  1  0  0  0  0
 28 29  1  0  0  0  0
 28 44  1  0  0  0  0
 29 45  1  0  0  0  0
M  END
>  <$CLUSTER>
446

>  <INDEX>
294850

$$$$
Life Chemicals F1608-0478
  MOE2020           3D

 55 58  0  0  0  0  0  0  0  0999 V2000
   -0.8020   -0.1210   -0.7140 C   0  0  0  0  0  0  0  0  0  0  0  0
   -1.0380   -0.5420    0.6060 C   0  0  0  0  0  0  0  0  0  0  0  0
   -2.2900   -0.1900    1.1970 C   0  0  0  0  0  0  0  0  0  0  0  0
    0.4550   -0.3950   -1.4270 C   0  0  0  0  0  0  0  0  0  0  0  0
   -0.0990   -1.2940    1.3000 N   0  0  0  0  0  0  0  0  0  0  0  0
   -1.7620    0.5990   -1.4130 C   0  0  0  0  0  0  0  0  0  0  0  0
   -2.9150    0.9200   -0.8220 N   0  3  0  0  0  0  0  0  0  0  0  0
   -3.2210    0.5660    0.4390 C   0  0  0  0  0  0  0  0  0  0  0  0
    0.9220   -3.1380    3.2710 N   0  3  0  0  0  0  0  0  0  0  0  0
   -2.6960   -0.5700    2.4980 C   0  0  0  0  0  0  0  0  0  0  0  0
    0.4110   -1.1390   -2.4010 O   0  0  0  0  0  0  0  0  0  0  0  0
    0.2180   -2.6400    0.8590 C   0  0  0  0  0  0  0  0  0  0  0  0
    0.5900   -0.7340    2.4480 C   0  0  0  0  0  0  0  0  0  0  0  0
    1.7320    0.2170   -1.0000 C   0  0  0  0  0  0  0  0  0  0  0  0
   -4.4640    0.9400    0.9710 C   0  0  0  0  0  0  0  0  0  0  0  0
    0.5020   -1.7310    3.6590 C   0  0  0  0  0  0  0  0  0  0  0  0
    0.1300   -3.6320    2.0730 C   0  0  0  0  0  0  0  0  0  0  0  0
   -3.9370   -0.1960    3.0230 C   0  0  0  0  0  0  0  0  0  0  0  0
   -4.8180    0.5630    2.2620 C   0  0  0  0  0  0  0  0  0  0  0  0
   -4.1610   -0.6390    4.3110 O   0  0  0  0  0  0  0  0  0  0  0  0
    0.8550   -4.0880    4.4260 C   0  0  0  0  0  0  0  0  0  0  0  0
    1.7620    1.3800   -0.2260 C   0  0  0  0  0  0  0  0  0  0  0  0
    2.9300   -0.3810   -1.4050 C   0  0  0  0  0  0  0  0  0  0  0  0
   -5.4110   -0.2880    4.8930 C   0  0  0  0  0  0  0  0  0  0  0  0
    1.9280   -3.8070    5.4660 C   0  0  0  0  0  0  0  0  0  0  0  0
    2.9880    1.9320    0.1540 C   0  0  0  0  0  0  0  0  0  0  0  0
    4.1520    0.1750   -1.0220 C   0  0  0  0  0  0  0  0  0  0  0  0
    4.1810    1.3290   -0.2420 C   0  0  0  0  0  0  0  0  0  0  0  0
   -1.5760    0.8990   -2.4340 H   0  0  0  0  0  0  0  0  0  0  0  0
   -3.5910    1.4550   -1.3480 H   0  0  0  0  0  0  0  0  0  0  0  0
    1.8930   -3.0990    2.9970 H   0  0  0  0  0  0  0  0  0  0  0  0
   -2.0290   -1.1660    3.1030 H   0  0  0  0  0  0  0  0  0  0  0  0
    1.2280   -2.6580    0.4490 H   0  0  0  0  0  0  0  0  0  0  0  0
   -0.4920   -2.9450    0.0900 H   0  0  0  0  0  0  0  0  0  0  0  0
    0.1240    0.2120    2.7240 H   0  0  0  0  0  0  0  0  0  0  0  0
    1.6360   -0.5640    2.1950 H   0  0  0  0  0  0  0  0  0  0  0  0
   -5.1500    1.5240    0.3750 H   0  0  0  0  0  0  0  0  0  0  0  0
    1.1560   -1.3760    4.4550 H   0  0  0  0  0  0  0  0  0  0  0  0
   -0.5270   -1.7580    4.0190 H   0  0  0  0  0  0  0  0  0  0  0  0
   -0.9150   -3.7410    2.3630 H   0  0  0  0  0  0  0  0  0  0  0  0
    0.5250   -4.6000    1.7650 H   0  0  0  0  0  0  0  0  0  0  0  0
   -5.7730    0.8590    2.6710 H   0  0  0  0  0  0  0  0  0  0  0  0
    0.9860   -5.1040    4.0530 H   0  0  0  0  0  0  0  0  0  0  0  0
   -0.1230   -3.9980    4.8980 H   0  0  0  0  0  0  0  0  0  0  0  0
    0.8390    1.8510    0.0780 H   0  0  0  0  0  0  0  0  0  0  0  0
    2.9100   -1.2730   -2.0140 H   0  0  0  0  0  0  0  0  0  0  0  0
   -5.4680   -0.6930    5.9040 H   0  0  0  0  0  0  0  0  0  0  0  0
   -6.2210   -0.7000    4.2910 H   0  0  0  0  0  0  0  0  0  0  0  0
   -5.5020    0.7980    4.9310 H   0  0  0  0  0  0  0  0  0  0  0  0
    2.9120   -3.8940    5.0050 H   0  0  0  0  0  0  0  0  0  0  0  0
    1.8430   -4.5270    6.2800 H   0  0  0  0  0  0  0  0  0  0  0  0
    1.7990   -2.7980    5.8580 H   0  0  0  0  0  0  0  0  0  0  0  0
    3.0120    2.8280    0.7560 H   0  0  0  0  0  0  0  0  0  0  0  0
    5.0760   -0.2900   -1.3310 H   0  0  0  0  0  0  0  0  0  0  0  0
    5.1270    1.7560    0.0560 H   0  0  0  0  0  0  0  0  0  0  0  0
  1  2  2  0  0  0  0
  1  4  1  0  0  0  0
  1  6  1  0  0  0  0
  2  3  1  0  0  0  0
  2  5  1  0  0  0  0
  3  8  2  0  0  0  0
  3 10  1  0  0  0  0
  4 11  2  0  0  0  0
  4 14  1  0  0  0  0
  5 12  1  0  0  0  0
  5 13  1  0  0  0  0
  6  7  2  0  0  0  0
  6 29  1  0  0  0  0
  7  8  1  0  0  0  0
  7 30  1  0  0  0  0
  8 15  1  0  0  0  0
  9 16  1  0  0  0  0
  9 17  1  0  0  0  0
  9 21  1  0  0  0  0
  9 31  1  0  0  0  0
 10 18  2  0  0  0  0
 10 32  1  0  0  0  0
 12 17  1  0  0  0  0
 12 33  1  0  0  0  0
 12 34  1  0  0  0  0
 13 16  1  0  0  0  0
 13 35  1  0  0  0  0
 13 36  1  0  0  0  0
 14 22  2  0  0  0  0
 14 23  1  0  0  0  0
 15 19  2  0  0  0  0
 15 37  1  0  0  0  0
 16 38  1  0  0  0  0
 16 39  1  0  0  0  0
 17 40  1  0  0  0  0
 17 41  1  0  0  0  0
 18 19  1  0  0  0  0
 18 20  1  0  0  0  0
 19 42  1  0  0  0  0
 20 24  1  0  0  0  0
 21 25  1  0  0  0  0
 21 43  1  0  0  0  0
 21 44  1  0  0  0  0
 22 26  1  0  0  0  0
 22 45  1  0  0  0  0
 23 27  2  0  0  0  0
 23 46  1  0  0  0  0
 24 47  1  0  0  0  0
 24 48  1  0  0  0  0
 24 49  1  0  0  0  0
 25 50  1  0  0  0  0
 25 51  1  0  0  0  0
 25 52  1  0  0  0  0
 26 28  2  0  0  0  0
 26 53  1  0  0  0  0
 27 28  1  0  0  0  0
 27 54  1  0  0  0  0
 28 55  1  0  0  0  0
M  CHG  1   7   1
M  CHG  1   9   1
M  END
>  <$CLUSTER>
447

>  <INDEX>
295573

$$$$
Life Chemicals F2015-0300
  MOE2020           3D

 54 58  0  0  0  0  0  0  0  0999 V2000
    0.0280   -2.0140    1.0040 C   0  0  0  0  0  0  0  0  0  0  0  0
    0.0530   -0.0510   -0.2980 N   0  0  0  0  0  0  0  0  0  0  0  0
   -0.4200    0.7330    0.8200 C   0  0  0  0  0  0  0  0  0  0  0  0
   -0.7050    0.0200    2.0220 N   0  0  0  0  0  0  0  0  0  0  0  0
   -0.4500   -1.3490    2.0980 C   0  0  0  0  0  0  0  0  0  0  0  0
    0.2970   -1.4540   -0.2770 C   0  0  0  0  0  0  0  0  0  0  0  0
    0.2110   -3.3310    1.2520 O   0  0  0  0  0  0  0  0  0  0  0  0
   -0.5690   -2.3260    3.1320 C   0  0  0  0  0  0  0  0  0  0  0  0
   -0.1500   -3.5260    2.5520 C   0  0  0  0  0  0  0  0  0  0  0  0
    0.3010    0.6450   -1.5450 C   0  0  0  0  0  0  0  0  0  0  0  0
   -1.2410    0.7730    3.1590 C   0  0  0  0  0  0  0  0  0  0  0  0
   -0.1410    1.2540    4.0930 C   0  0  0  0  0  0  0  0  0  0  0  0
   -0.5300    1.9650    0.7770 O   0  0  0  0  0  0  0  0  0  0  0  0
    0.6410   -2.1450   -1.2310 O   0  0  0  0  0  0  0  0  0  0  0  0
    0.0490    0.4800    5.1980 N   0  0  0  0  0  0  0  0  0  0  0  0
    0.5560    2.2460    3.8690 O   0  0  0  0  0  0  0  0  0  0  0  0
    0.9330    0.5650    6.2760 C   0  0  0  0  0  0  0  0  0  0  0  0
    1.4340    0.3540   -2.3230 C   0  0  0  0  0  0  0  0  0  0  0  0
   -0.5890    1.6270   -2.0140 C   0  0  0  0  0  0  0  0  0  0  0  0
    1.8840    1.5850    6.3810 C   0  0  0  0  0  0  0  0  0  0  0  0
    1.6700    1.0250   -3.5260 C   0  0  0  0  0  0  0  0  0  0  0  0
   -0.3510    2.2950   -3.2190 C   0  0  0  0  0  0  0  0  0  0  0  0
    0.7780    1.9940   -3.9740 C   0  0  0  0  0  0  0  0  0  0  0  0
   -0.9680   -2.3660    4.4830 C   0  0  0  0  0  0  0  0  0  0  0  0
    2.7520    1.6310    7.4770 C   0  0  0  0  0  0  0  0  0  0  0  0
   -0.1070   -4.7530    3.2150 C   0  0  0  0  0  0  0  0  0  0  0  0
    1.7360   -0.3570    8.3810 C   0  0  0  0  0  0  0  0  0  0  0  0
    0.8690   -0.4060    7.2880 C   0  0  0  0  0  0  0  0  0  0  0  0
    2.6790    0.6620    8.4750 C   0  0  0  0  0  0  0  0  0  0  0  0
    1.0340    2.7080   -5.2610 C   0  0  0  0  0  0  0  0  0  0  0  0
    3.7670    2.7260    7.5760 C   0  0  0  0  0  0  0  0  0  0  0  0
   -0.9350   -3.5850    5.1760 C   0  0  0  0  0  0  0  0  0  0  0  0
   -0.5130   -4.7570    4.5500 C   0  0  0  0  0  0  0  0  0  0  0  0
   -1.9210    0.1300    3.7180 H   0  0  0  0  0  0  0  0  0  0  0  0
   -1.7860    1.6380    2.7820 H   0  0  0  0  0  0  0  0  0  0  0  0
   -0.5740   -0.3140    5.2480 H   0  0  0  0  0  0  0  0  0  0  0  0
    2.1320   -0.3980   -1.9870 H   0  0  0  0  0  0  0  0  0  0  0  0
   -1.4680    1.8690   -1.4360 H   0  0  0  0  0  0  0  0  0  0  0  0
    1.9490    2.3410    5.6120 H   0  0  0  0  0  0  0  0  0  0  0  0
    2.5480    0.7900   -4.1100 H   0  0  0  0  0  0  0  0  0  0  0  0
   -1.0450    3.0470   -3.5650 H   0  0  0  0  0  0  0  0  0  0  0  0
   -1.2960   -1.4660    4.9810 H   0  0  0  0  0  0  0  0  0  0  0  0
    0.2240   -5.6540    2.7200 H   0  0  0  0  0  0  0  0  0  0  0  0
    1.6750   -1.1100    9.1530 H   0  0  0  0  0  0  0  0  0  0  0  0
    0.1400   -1.2000    7.2200 H   0  0  0  0  0  0  0  0  0  0  0  0
    3.3520    0.7010    9.3190 H   0  0  0  0  0  0  0  0  0  0  0  0
    1.9590    2.3380   -5.7040 H   0  0  0  0  0  0  0  0  0  0  0  0
    1.1240    3.7780   -5.0710 H   0  0  0  0  0  0  0  0  0  0  0  0
    0.2060    2.5290   -5.9470 H   0  0  0  0  0  0  0  0  0  0  0  0
    3.6760    3.3850    6.7120 H   0  0  0  0  0  0  0  0  0  0  0  0
    4.7670    2.2930    7.5990 H   0  0  0  0  0  0  0  0  0  0  0  0
    3.5970    3.2970    8.4890 H   0  0  0  0  0  0  0  0  0  0  0  0
   -1.2410   -3.6160    6.2110 H   0  0  0  0  0  0  0  0  0  0  0  0
   -0.5000   -5.6820    5.1070 H   0  0  0  0  0  0  0  0  0  0  0  0
  1  5  2  0  0  0  0
  1  6  1  0  0  0  0
  1  7  1  0  0  0  0
  2  3  1  0  0  0  0
  2  6  1  0  0  0  0
  2 10  1  0  0  0  0
  3  4  1  0  0  0  0
  3 13  2  0  0  0  0
  4  5  1  0  0  0  0
  4 11  1  0  0  0  0
  5  8  1  0  0  0  0
  6 14  2  0  0  0  0
  7  9  1  0  0  0  0
  8  9  2  0  0  0  0
  8 24  1  0  0  0  0
  9 26  1  0  0  0  0
 10 18  2  0  0  0  0
 10 19  1  0  0  0  0
 11 12  1  0  0  0  0
 11 34  1  0  0  0  0
 11 35  1  0  0  0  0
 12 15  1  0  0  0  0
 12 16  2  0  0  0  0
 15 17  1  0  0  0  0
 15 36  1  0  0  0  0
 17 20  2  0  0  0  0
 17 28  1  0  0  0  0
 18 21  1  0  0  0  0
 18 37  1  0  0  0  0
 19 22  2  0  0  0  0
 19 38  1  0  0  0  0
 20 25  1  0  0  0  0
 20 39  1  0  0  0  0
 21 23  2  0  0  0  0
 21 40  1  0  0  0  0
 22 23  1  0  0  0  0
 22 41  1  0  0  0  0
 23 30  1  0  0  0  0
 24 32  2  0  0  0  0
 24 42  1  0  0  0  0
 25 29  2  0  0  0  0
 25 31  1  0  0  0  0
 26 33  2  0  0  0  0
 26 43  1  0  0  0  0
 27 28  2  0  0  0  0
 27 29  1  0  0  0  0
 27 44  1  0  0  0  0
 28 45  1  0  0  0  0
 29 46  1  0  0  0  0
 30 47  1  0  0  0  0
 30 48  1  0  0  0  0
 30 49  1  0  0  0  0
 31 50  1  0  0  0  0
 31 51  1  0  0  0  0
 31 52  1  0  0  0  0
 32 33  1  0  0  0  0
 32 53  1  0  0  0  0
 33 54  1  0  0  0  0
M  END
>  <$CLUSTER>
448

>  <INDEX>
303609

$$$$
Princeton Biomolecular OSSK_554172
  MOE2020           3D

 45 48  0  0  0  0  0  0  0  0999 V2000
   -0.2400    0.2220    0.0190 N   0  0  0  0  0  0  0  0  0  0  0  0
   -1.2380    1.1970    0.0950 C   0  0  0  0  0  0  0  0  0  0  0  0
   -1.9620   -1.0490    1.0200 C   0  0  0  0  0  0  0  0  0  0  0  0
   -0.5760   -1.0490    0.5030 C   0  0  0  0  0  0  0  0  0  0  0  0
   -3.9180   -2.2950    2.0610 C   0  0  0  0  0  0  0  0  0  0  0  0
   -2.6490    0.5150    0.9070 S   0  0  0  0  0  0  0  0  0  0  0  0
   -5.9460   -1.7800    2.7010 N   0  0  0  0  0  0  0  0  0  0  0  0
   -2.5350   -2.1550    1.5050 C   0  0  0  0  0  0  0  0  0  0  0  0
   -4.8060   -1.2620    2.1460 C   0  0  0  0  0  0  0  0  0  0  0  0
   -4.4880   -3.4650    2.5610 C   0  0  0  0  0  0  0  0  0  0  0  0
   -5.7840   -3.1230    2.9670 C   0  0  0  0  0  0  0  0  0  0  0  0
    1.0740    0.4500   -0.5120 C   0  0  0  0  0  0  0  0  0  0  0  0
   -1.2950    2.7500   -0.5310 S   0  0  0  0  0  0  0  0  0  0  0  0
    5.7600    0.3670   -2.8580 C   0  0  0  0  0  0  0  0  0  0  0  0
    0.1410   -2.0420    0.5630 O   0  0  0  0  0  0  0  0  0  0  0  0
    4.9790    1.1390   -2.0070 N   0  0  0  0  0  0  0  0  0  0  0  0
    5.4790   -0.7110   -3.3710 O   0  0  0  0  0  0  0  0  0  0  0  0
    1.6700   -0.4960   -1.3620 C   0  0  0  0  0  0  0  0  0  0  0  0
    1.8120    1.5930   -0.1710 C   0  0  0  0  0  0  0  0  0  0  0  0
    3.6660    0.8550   -1.5370 C   0  0  0  0  0  0  0  0  0  0  0  0
   -7.1460   -1.0190    2.9690 C   0  0  0  0  0  0  0  0  0  0  0  0
    2.9530   -0.2910   -1.8750 C   0  0  0  0  0  0  0  0  0  0  0  0
    3.0970    1.7950   -0.6830 C   0  0  0  0  0  0  0  0  0  0  0  0
   -6.6650   -4.0610    3.5270 C   0  0  0  0  0  0  0  0  0  0  0  0
   -4.0640   -4.8030    2.7250 C   0  0  0  0  0  0  0  0  0  0  0  0
    7.0930    1.0220   -3.1180 C   0  0  0  0  0  0  0  0  0  0  0  0
   -4.9360   -5.7440    3.2830 C   0  0  0  0  0  0  0  0  0  0  0  0
   -6.2180   -5.3760    3.6780 C   0  0  0  0  0  0  0  0  0  0  0  0
   -1.9310   -3.0500    1.4950 H   0  0  0  0  0  0  0  0  0  0  0  0
   -4.6420   -0.2400    1.8370 H   0  0  0  0  0  0  0  0  0  0  0  0
    5.3910    2.0030   -1.6840 H   0  0  0  0  0  0  0  0  0  0  0  0
    1.1290   -1.3940   -1.6220 H   0  0  0  0  0  0  0  0  0  0  0  0
    1.3820    2.3260    0.4950 H   0  0  0  0  0  0  0  0  0  0  0  0
   -6.9970    0.0160    2.6600 H   0  0  0  0  0  0  0  0  0  0  0  0
   -7.3660   -1.0520    4.0360 H   0  0  0  0  0  0  0  0  0  0  0  0
   -7.9800   -1.4470    2.4130 H   0  0  0  0  0  0  0  0  0  0  0  0
    3.3930   -1.0240   -2.5360 H   0  0  0  0  0  0  0  0  0  0  0  0
    3.6500    2.6830   -0.4150 H   0  0  0  0  0  0  0  0  0  0  0  0
   -7.6600   -3.7740    3.8330 H   0  0  0  0  0  0  0  0  0  0  0  0
   -3.0710   -5.0980    2.4210 H   0  0  0  0  0  0  0  0  0  0  0  0
    7.1460    1.9650   -2.5740 H   0  0  0  0  0  0  0  0  0  0  0  0
    7.2030    1.2110   -4.1860 H   0  0  0  0  0  0  0  0  0  0  0  0
    7.8930    0.3630   -2.7820 H   0  0  0  0  0  0  0  0  0  0  0  0
   -4.6110   -6.7660    3.4080 H   0  0  0  0  0  0  0  0  0  0  0  0
   -6.8770   -6.1170    4.1070 H   0  0  0  0  0  0  0  0  0  0  0  0
  1  2  1  0  0  0  0
  1  4  1  0  0  0  0
  1 12  1  0  0  0  0
  2  6  1  0  0  0  0
  2 13  2  0  0  0  0
  3  4  1  0  0  0  0
  3  6  1  0  0  0  0
  3  8  2  0  0  0  0
  4 15  2  0  0  0  0
  5  8  1  0  0  0  0
  5  9  2  0  0  0  0
  5 10  1  0  0  0  0
  7  9  1  0  0  0  0
  7 11  1  0  0  0  0
  7 21  1  0  0  0  0
  8 29  1  0  0  0  0
  9 30  1  0  0  0  0
 10 11  1  0  0  0  0
 10 25  2  0  0  0  0
 11 24  2  0  0  0  0
 12 18  2  0  0  0  0
 12 19  1  0  0  0  0
 14 16  1  0  0  0  0
 14 17  2  0  0  0  0
 14 26  1  0  0  0  0
 16 20  1  0  0  0  0
 16 31  1  0  0  0  0
 18 22  1  0  0  0  0
 18 32  1  0  0  0  0
 19 23  2  0  0  0  0
 19 33  1  0  0  0  0
 20 22  2  0  0  0  0
 20 23  1  0  0  0  0
 21 34  1  0  0  0  0
 21 35  1  0  0  0  0
 21 36  1  0  0  0  0
 22 37  1  0  0  0  0
 23 38  1  0  0  0  0
 24 28  1  0  0  0  0
 24 39  1  0  0  0  0
 25 27  1  0  0  0  0
 25 40  1  0  0  0  0
 26 41  1  0  0  0  0
 26 42  1  0  0  0  0
 26 43  1  0  0  0  0
 27 28  2  0  0  0  0
 27 44  1  0  0  0  0
 28 45  1  0  0  0  0
M  END
>  <$CLUSTER>
449

>  <INDEX>
588776

$$$$
Life Chemicals F1804-0032
  MOE2020           3D

 38 40  0  0  0  0  0  0  0  0999 V2000
   -0.7440   -1.4020   -0.8870 S   0  0  0  0  0  0  0  0  0  0  0  0
   -0.3610    0.1800   -0.4010 N   0  0  0  0  0  0  0  0  0  0  0  0
    0.6550    0.6810    0.4590 C   0  0  0  0  0  0  0  0  0  0  0  0
    0.5530    1.9410    0.7480 N   0  0  0  0  0  0  0  0  0  0  0  0
   -1.7010   -1.9460    0.5090 C   0  0  0  0  0  0  0  0  0  0  0  0
   -1.6380   -1.3480   -2.0290 O   0  0  0  0  0  0  0  0  0  0  0  0
    0.4480   -2.2250   -0.9390 O   0  0  0  0  0  0  0  0  0  0  0  0
    1.9000   -0.3570    1.0700 S   0  0  0  0  0  0  0  0  0  0  0  0
   -1.3790    1.2350   -0.5620 C   0  0  0  0  0  0  0  0  0  0  0  0
   -1.0730   -2.5940    1.5870 C   0  0  0  0  0  0  0  0  0  0  0  0
   -3.1020   -1.8080    0.5120 C   0  0  0  0  0  0  0  0  0  0  0  0
   -0.6270    2.4440   -0.0040 C   0  0  0  0  0  0  0  0  0  0  0  0
    2.8930    0.7980    2.0370 C   0  0  0  0  0  0  0  0  0  0  0  0
   -3.2140   -2.8950    2.6690 C   0  0  0  0  0  0  0  0  0  0  0  0
   -3.8510   -2.2720    1.5940 C   0  0  0  0  0  0  0  0  0  0  0  0
   -1.8280   -3.0570    2.6660 C   0  0  0  0  0  0  0  0  0  0  0  0
   -4.1450   -3.4560    3.9810 Cl  0  0  0  0  0  0  0  0  0  0  0  0
    2.1800    1.2650    3.3020 C   0  0  0  0  0  0  0  0  0  0  0  0
    1.3230    2.3720    3.2610 C   0  0  0  0  0  0  0  0  0  0  0  0
    2.3450    0.5670    4.5050 C   0  0  0  0  0  0  0  0  0  0  0  0
    0.6580    2.7880    4.4160 C   0  0  0  0  0  0  0  0  0  0  0  0
    1.6780    0.9860    5.6570 C   0  0  0  0  0  0  0  0  0  0  0  0
    0.8360    2.0970    5.6130 C   0  0  0  0  0  0  0  0  0  0  0  0
   -2.2770    1.0180    0.0170 H   0  0  0  0  0  0  0  0  0  0  0  0
   -1.6470    1.3770   -1.6090 H   0  0  0  0  0  0  0  0  0  0  0  0
   -0.0020   -2.7340    1.5800 H   0  0  0  0  0  0  0  0  0  0  0  0
   -3.5990   -1.3410   -0.3260 H   0  0  0  0  0  0  0  0  0  0  0  0
   -0.2990    3.0860   -0.8220 H   0  0  0  0  0  0  0  0  0  0  0  0
   -1.2780    3.0090    0.6630 H   0  0  0  0  0  0  0  0  0  0  0  0
    3.1160    1.6680    1.4200 H   0  0  0  0  0  0  0  0  0  0  0  0
    3.8230    0.3060    2.3210 H   0  0  0  0  0  0  0  0  0  0  0  0
   -4.9240   -2.1490    1.6000 H   0  0  0  0  0  0  0  0  0  0  0  0
   -1.3390   -3.5410    3.4990 H   0  0  0  0  0  0  0  0  0  0  0  0
    1.1760    2.9050    2.3330 H   0  0  0  0  0  0  0  0  0  0  0  0
    2.9900   -0.2980    4.5410 H   0  0  0  0  0  0  0  0  0  0  0  0
    0.0040    3.6470    4.3820 H   0  0  0  0  0  0  0  0  0  0  0  0
    1.8140    0.4490    6.5840 H   0  0  0  0  0  0  0  0  0  0  0  0
    0.3220    2.4220    6.5060 H   0  0  0  0  0  0  0  0  0  0  0  0
  1  2  1  0  0  0  0
  1  5  1  0  0  0  0
  1  6  2  0  0  0  0
  1  7  2  0  0  0  0
  2  3  1  0  0  0  0
  2  9  1  0  0  0  0
  3  4  2  0  0  0  0
  3  8  1  0  0  0  0
  4 12  1  0  0  0  0
  5 10  1  0  0  0  0
  5 11  2  0  0  0  0
  8 13  1  0  0  0  0
  9 12  1  0  0  0  0
  9 24  1  0  0  0  0
  9 25  1  0  0  0  0
 10 16  2  0  0  0  0
 10 26  1  0  0  0  0
 11 15  1  0  0  0  0
 11 27  1  0  0  0  0
 12 28  1  0  0  0  0
 12 29  1  0  0  0  0
 13 18  1  0  0  0  0
 13 30  1  0  0  0  0
 13 31  1  0  0  0  0
 14 15  2  0  0  0  0
 14 16  1  0  0  0  0
 14 17  1  0  0  0  0
 15 32  1  0  0  0  0
 16 33  1  0  0  0  0
 18 19  2  0  0  0  0
 18 20  1  0  0  0  0
 19 21  1  0  0  0  0
 19 34  1  0  0  0  0
 20 22  2  0  0  0  0
 20 35  1  0  0  0  0
 21 23  2  0  0  0  0
 21 36  1  0  0  0  0
 22 23  1  0  0  0  0
 22 37  1  0  0  0  0
 23 38  1  0  0  0  0
M  END
>  <$CLUSTER>
450

>  <INDEX>
296843

$$$$
Life Chemicals F1804-0153
  MOE2020           3D

 43 45  0  0  0  0  0  0  0  0999 V2000
   -0.7440   -1.4020   -0.8870 S   0  0  0  0  0  0  0  0  0  0  0  0
   -0.3610    0.1800   -0.4010 N   0  0  0  0  0  0  0  0  0  0  0  0
    0.6550    0.6810    0.4590 C   0  0  0  0  0  0  0  0  0  0  0  0
   -4.0120   -3.3580    3.7560 N   0  3  0  0  0  0  0  0  0  0  0  0
    0.5530    1.9410    0.7480 N   0  0  0  0  0  0  0  0  0  0  0  0
   -1.7010   -1.9460    0.5090 C   0  0  0  0  0  0  0  0  0  0  0  0
   -1.6380   -1.3480   -2.0290 O   0  0  0  0  0  0  0  0  0  0  0  0
    0.4480   -2.2250   -0.9390 O   0  0  0  0  0  0  0  0  0  0  0  0
    1.9000   -0.3570    1.0700 S   0  0  0  0  0  0  0  0  0  0  0  0
   -3.2140   -2.8950    2.6690 C   0  0  0  0  0  0  0  0  0  0  0  0
   -5.2470   -3.2110    3.7500 O   0  5  0  0  0  0  0  0  0  0  0  0
   -3.3890   -3.9040    4.6820 O   0  0  0  0  0  0  0  0  0  0  0  0
   -1.3790    1.2350   -0.5620 C   0  0  0  0  0  0  0  0  0  0  0  0
   -1.0730   -2.5940    1.5870 C   0  0  0  0  0  0  0  0  0  0  0  0
   -3.1020   -1.8080    0.5120 C   0  0  0  0  0  0  0  0  0  0  0  0
   -3.8510   -2.2720    1.5940 C   0  0  0  0  0  0  0  0  0  0  0  0
   -1.8280   -3.0570    2.6660 C   0  0  0  0  0  0  0  0  0  0  0  0
   -0.6270    2.4440   -0.0040 C   0  0  0  0  0  0  0  0  0  0  0  0
    2.8930    0.7980    2.0370 C   0  0  0  0  0  0  0  0  0  0  0  0
    1.3230    2.3720    3.2610 C   0  0  0  0  0  0  0  0  0  0  0  0
    2.1800    1.2650    3.3020 C   0  0  0  0  0  0  0  0  0  0  0  0
    0.6580    2.7880    4.4160 C   0  0  0  0  0  0  0  0  0  0  0  0
    1.6780    0.9860    5.6570 C   0  0  0  0  0  0  0  0  0  0  0  0
    2.3450    0.5670    4.5050 C   0  0  0  0  0  0  0  0  0  0  0  0
    0.8360    2.0970    5.6130 C   0  0  0  0  0  0  0  0  0  0  0  0
   -0.2460    3.9770    4.3700 C   0  0  0  0  0  0  0  0  0  0  0  0
   -2.2770    1.0180    0.0170 H   0  0  0  0  0  0  0  0  0  0  0  0
   -1.6470    1.3770   -1.6090 H   0  0  0  0  0  0  0  0  0  0  0  0
   -0.0020   -2.7340    1.5800 H   0  0  0  0  0  0  0  0  0  0  0  0
   -3.5990   -1.3410   -0.3260 H   0  0  0  0  0  0  0  0  0  0  0  0
   -4.9240   -2.1490    1.6000 H   0  0  0  0  0  0  0  0  0  0  0  0
   -1.3390   -3.5410    3.4990 H   0  0  0  0  0  0  0  0  0  0  0  0
   -0.2990    3.0860   -0.8220 H   0  0  0  0  0  0  0  0  0  0  0  0
   -1.2780    3.0090    0.6630 H   0  0  0  0  0  0  0  0  0  0  0  0
    3.1160    1.6680    1.4200 H   0  0  0  0  0  0  0  0  0  0  0  0
    3.8230    0.3060    2.3210 H   0  0  0  0  0  0  0  0  0  0  0  0
    1.1760    2.9050    2.3330 H   0  0  0  0  0  0  0  0  0  0  0  0
    1.8140    0.4490    6.5840 H   0  0  0  0  0  0  0  0  0  0  0  0
    2.9900   -0.2980    4.5410 H   0  0  0  0  0  0  0  0  0  0  0  0
    0.3220    2.4220    6.5060 H   0  0  0  0  0  0  0  0  0  0  0  0
   -0.2600    4.3840    3.3590 H   0  0  0  0  0  0  0  0  0  0  0  0
    0.1170    4.7370    5.0620 H   0  0  0  0  0  0  0  0  0  0  0  0
   -1.2550    3.6780    4.6550 H   0  0  0  0  0  0  0  0  0  0  0  0
  1  2  1  0  0  0  0
  1  6  1  0  0  0  0
  1  7  2  0  0  0  0
  1  8  2  0  0  0  0
  2  3  1  0  0  0  0
  2 13  1  0  0  0  0
  3  5  2  0  0  0  0
  3  9  1  0  0  0  0
  4 10  1  0  0  0  0
  4 11  1  0  0  0  0
  4 12  2  0  0  0  0
  5 18  1  0  0  0  0
  6 14  1  0  0  0  0
  6 15  2  0  0  0  0
  9 19  1  0  0  0  0
 10 16  2  0  0  0  0
 10 17  1  0  0  0  0
 13 18  1  0  0  0  0
 13 27  1  0  0  0  0
 13 28  1  0  0  0  0
 14 17  2  0  0  0  0
 14 29  1  0  0  0  0
 15 16  1  0  0  0  0
 15 30  1  0  0  0  0
 16 31  1  0  0  0  0
 17 32  1  0  0  0  0
 18 33  1  0  0  0  0
 18 34  1  0  0  0  0
 19 21  1  0  0  0  0
 19 35  1  0  0  0  0
 19 36  1  0  0  0  0
 20 21  2  0  0  0  0
 20 22  1  0  0  0  0
 20 37  1  0  0  0  0
 21 24  1  0  0  0  0
 22 25  2  0  0  0  0
 22 26  1  0  0  0  0
 23 24  2  0  0  0  0
 23 25  1  0  0  0  0
 23 38  1  0  0  0  0
 24 39  1  0  0  0  0
 25 40  1  0  0  0  0
 26 41  1  0  0  0  0
 26 42  1  0  0  0  0
 26 43  1  0  0  0  0
M  CHG  1   4   1
M  CHG  1  11  -1
M  END
>  <$CLUSTER>
451

>  <INDEX>
296917

$$$$
InterBioScreen STOCK5S-43187
  MOE2020           3D

 38 41  0  0  0  0  0  0  0  0999 V2000
   -0.2790    0.1970   -0.6630 N   0  0  0  0  0  0  0  0  0  0  0  0
    0.1500   -0.7090    0.2900 C   0  0  0  0  0  0  0  0  0  0  0  0
   -0.0330   -0.2400    1.5000 N   0  0  0  0  0  0  0  0  0  0  0  0
   -0.1940   -0.0650   -2.0390 C   0  0  0  0  0  0  0  0  0  0  0  0
   -0.7590    1.2980   -0.0250 N   0  0  0  0  0  0  0  0  0  0  0  0
    0.6830   -1.9150   -0.0940 N   0  0  0  0  0  0  0  0  0  0  0  0
   -0.5860    0.9790    1.2580 C   0  0  0  0  0  0  0  0  0  0  0  0
    0.3250   -1.2400   -2.4340 C   0  0  0  0  0  0  0  0  0  0  0  0
   -0.6550    0.9190   -2.9000 N   0  0  0  0  0  0  0  0  0  0  0  0
    0.7990   -2.2430   -1.4360 C   0  0  0  0  0  0  0  0  0  0  0  0
   -0.6860    0.9150   -4.2890 C   0  0  0  0  0  0  0  0  0  0  0  0
   -1.2740    2.1950   -4.8280 C   0  0  0  0  0  0  0  0  0  0  0  0
   -0.9870    1.9060    2.3090 C   0  0  0  0  0  0  0  0  0  0  0  0
   -0.3040    0.0280   -5.0460 O   0  0  0  0  0  0  0  0  0  0  0  0
    1.2690   -3.3100   -1.8240 O   0  0  0  0  0  0  0  0  0  0  0  0
   -1.2340    3.4080   -4.1840 C   0  0  0  0  0  0  0  0  0  0  0  0
   -1.8440    2.1160   -6.1350 C   0  0  0  0  0  0  0  0  0  0  0  0
   -2.3610    4.4750   -6.0410 C   0  0  0  0  0  0  0  0  0  0  0  0
   -2.3900    3.2590   -6.7210 C   0  0  0  0  0  0  0  0  0  0  0  0
   -1.7810    4.5490   -4.7750 C   0  0  0  0  0  0  0  0  0  0  0  0
   -2.9060    5.5160   -6.6690 F   0  0  0  0  0  0  0  0  0  0  0  0
   -0.5280    1.7450    3.6200 C   0  0  0  0  0  0  0  0  0  0  0  0
   -1.8360    2.9770    2.0040 C   0  0  0  0  0  0  0  0  0  0  0  0
   -2.2310    3.8720    3.0020 C   0  0  0  0  0  0  0  0  0  0  0  0
   -0.9240    2.6420    4.6180 C   0  0  0  0  0  0  0  0  0  0  0  0
   -1.7760    3.7030    4.3100 C   0  0  0  0  0  0  0  0  0  0  0  0
    0.9940   -2.5700    0.6090 H   0  0  0  0  0  0  0  0  0  0  0  0
    0.4000   -1.4610   -3.4880 H   0  0  0  0  0  0  0  0  0  0  0  0
   -1.0170    1.7510   -2.4580 H   0  0  0  0  0  0  0  0  0  0  0  0
   -0.7740    3.4800   -3.2090 H   0  0  0  0  0  0  0  0  0  0  0  0
   -1.8530    1.1760   -6.6670 H   0  0  0  0  0  0  0  0  0  0  0  0
   -2.8360    3.2010   -7.7030 H   0  0  0  0  0  0  0  0  0  0  0  0
   -1.7550    5.4920   -4.2500 H   0  0  0  0  0  0  0  0  0  0  0  0
    0.1340    0.9270    3.8630 H   0  0  0  0  0  0  0  0  0  0  0  0
   -2.1880    3.1120    0.9920 H   0  0  0  0  0  0  0  0  0  0  0  0
   -2.8880    4.6940    2.7610 H   0  0  0  0  0  0  0  0  0  0  0  0
   -0.5690    2.5130    5.6300 H   0  0  0  0  0  0  0  0  0  0  0  0
   -2.0830    4.3920    5.0830 H   0  0  0  0  0  0  0  0  0  0  0  0
  1  2  1  0  0  0  0
  1  4  1  0  0  0  0
  1  5  1  0  0  0  0
  2  3  2  0  0  0  0
  2  6  1  0  0  0  0
  3  7  1  0  0  0  0
  4  8  2  0  0  0  0
  4  9  1  0  0  0  0
  5  7  2  0  0  0  0
  6 10  1  0  0  0  0
  6 27  1  0  0  0  0
  7 13  1  0  0  0  0
  8 10  1  0  0  0  0
  8 28  1  0  0  0  0
  9 11  1  0  0  0  0
  9 29  1  0  0  0  0
 10 15  2  0  0  0  0
 11 12  1  0  0  0  0
 11 14  2  0  0  0  0
 12 16  1  0  0  0  0
 12 17  2  0  0  0  0
 13 22  1  0  0  0  0
 13 23  2  0  0  0  0
 16 20  2  0  0  0  0
 16 30  1  0  0  0  0
 17 19  1  0  0  0  0
 17 31  1  0  0  0  0
 18 19  2  0  0  0  0
 18 20  1  0  0  0  0
 18 21  1  0  0  0  0
 19 32  1  0  0  0  0
 20 33  1  0  0  0  0
 22 25  2  0  0  0  0
 22 34  1  0  0  0  0
 23 24  1  0  0  0  0
 23 35  1  0  0  0  0
 24 26  2  0  0  0  0
 24 36  1  0  0  0  0
 25 26  1  0  0  0  0
 25 37  1  0  0  0  0
 26 38  1  0  0  0  0
M  END
>  <$CLUSTER>
452

>  <INDEX>
375707

$$$$
Life Chemicals F1801-0075
  MOE2020           3D

 38 40  0  0  0  0  0  0  0  0999 V2000
   -1.4690   -1.1400   -0.6970 C   0  0  0  0  0  0  0  0  0  0  0  0
   -0.0780   -1.0970   -0.6410 N   0  0  0  0  0  0  0  0  0  0  0  0
    0.6180   -0.0590   -0.0210 C   0  0  0  0  0  0  0  0  0  0  0  0
   -2.1520   -0.0940   -0.1020 N   0  0  0  0  0  0  0  0  0  0  0  0
   -0.0730    0.9330    0.5420 C   0  0  0  0  0  0  0  0  0  0  0  0
   -1.5320    0.9600    0.5260 C   0  0  0  0  0  0  0  0  0  0  0  0
    2.0000   -0.0840   -0.0050 N   0  0  0  0  0  0  0  0  0  0  0  0
    2.8900    0.8160    0.5400 C   0  0  0  0  0  0  0  0  0  0  0  0
    4.3280    0.4000    0.3300 C   0  0  0  0  0  0  0  0  0  0  0  0
   -2.0770   -2.0590   -1.2460 O   0  0  0  0  0  0  0  0  0  0  0  0
    5.2700    0.9190    1.2610 C   0  0  0  0  0  0  0  0  0  0  0  0
   -2.1140    1.9010    1.0610 O   0  0  0  0  0  0  0  0  0  0  0  0
    6.6220    0.5970    1.1240 C   0  0  0  0  0  0  0  0  0  0  0  0
    2.6160    1.8540    1.1380 O   0  0  0  0  0  0  0  0  0  0  0  0
    4.7600   -0.3790   -0.7150 C   0  0  0  0  0  0  0  0  0  0  0  0
    0.6500   -2.2050   -1.2710 C   0  0  0  0  0  0  0  0  0  0  0  0
    7.0430   -0.2120    0.0710 C   0  0  0  0  0  0  0  0  0  0  0  0
    6.1140   -0.6970   -0.8480 C   0  0  0  0  0  0  0  0  0  0  0  0
   -3.6060   -0.1260   -0.1530 C   0  0  0  0  0  0  0  0  0  0  0  0
    7.5640    1.0930    2.0520 C   0  0  0  0  0  0  0  0  0  0  0  0
    8.4170   -0.5210   -0.0620 C   0  0  0  0  0  0  0  0  0  0  0  0
    8.9150    0.7780    1.9130 C   0  0  0  0  0  0  0  0  0  0  0  0
    9.3410   -0.0270    0.8600 C   0  0  0  0  0  0  0  0  0  0  0  0
    0.4620    1.7390    1.0230 H   0  0  0  0  0  0  0  0  0  0  0  0
    2.4200   -0.8810   -0.4610 H   0  0  0  0  0  0  0  0  0  0  0  0
    4.9420    1.5570    2.0680 H   0  0  0  0  0  0  0  0  0  0  0  0
    4.0490   -0.7480   -1.4390 H   0  0  0  0  0  0  0  0  0  0  0  0
   -0.0620   -2.9110   -1.6980 H   0  0  0  0  0  0  0  0  0  0  0  0
    1.2600   -2.7110   -0.5230 H   0  0  0  0  0  0  0  0  0  0  0  0
    1.2930   -1.8150   -2.0600 H   0  0  0  0  0  0  0  0  0  0  0  0
    6.4420   -1.3210   -1.6660 H   0  0  0  0  0  0  0  0  0  0  0  0
   -3.9310   -1.0220   -0.6820 H   0  0  0  0  0  0  0  0  0  0  0  0
   -3.9710    0.7580   -0.6760 H   0  0  0  0  0  0  0  0  0  0  0  0
   -4.0050   -0.1380    0.8610 H   0  0  0  0  0  0  0  0  0  0  0  0
    7.2370    1.7170    2.8710 H   0  0  0  0  0  0  0  0  0  0  0  0
    8.7520   -1.1410   -0.8800 H   0  0  0  0  0  0  0  0  0  0  0  0
    9.6330    1.1590    2.6240 H   0  0  0  0  0  0  0  0  0  0  0  0
   10.3880   -0.2700    0.7560 H   0  0  0  0  0  0  0  0  0  0  0  0
  1  2  1  0  0  0  0
  1  4  1  0  0  0  0
  1 10  2  0  0  0  0
  2  3  1  0  0  0  0
  2 16  1  0  0  0  0
  3  5  2  0  0  0  0
  3  7  1  0  0  0  0
  4  6  1  0  0  0  0
  4 19  1  0  0  0  0
  5  6  1  0  0  0  0
  5 24  1  0  0  0  0
  6 12  2  0  0  0  0
  7  8  1  0  0  0  0
  7 25  1  0  0  0  0
  8  9  1  0  0  0  0
  8 14  2  0  0  0  0
  9 11  2  0  0  0  0
  9 15  1  0  0  0  0
 11 13  1  0  0  0  0
 11 26  1  0  0  0  0
 13 17  2  0  0  0  0
 13 20  1  0  0  0  0
 15 18  2  0  0  0  0
 15 27  1  0  0  0  0
 16 28  1  0  0  0  0
 16 29  1  0  0  0  0
 16 30  1  0  0  0  0
 17 18  1  0  0  0  0
 17 21  1  0  0  0  0
 18 31  1  0  0  0  0
 19 32  1  0  0  0  0
 19 33  1  0  0  0  0
 19 34  1  0  0  0  0
 20 22  2  0  0  0  0
 20 35  1  0  0  0  0
 21 23  2  0  0  0  0
 21 36  1  0  0  0  0
 22 23  1  0  0  0  0
 22 37  1  0  0  0  0
 23 38  1  0  0  0  0
M  END
>  <$CLUSTER>
453

>  <INDEX>
296773

$$$$
Life Chemicals F1812-0040
  MOE2020           3D

 47 49  0  0  0  0  0  0  0  0999 V2000
    2.0940   -1.3490    2.2720 N   0  0  0  0  0  0  0  0  0  0  0  0
    1.3840   -1.9130    1.2570 C   0  0  0  0  0  0  0  0  0  0  0  0
    1.9230   -2.1730    3.3410 C   0  0  0  0  0  0  0  0  0  0  0  0
    0.8100   -3.0130    1.6770 N   0  0  0  0  0  0  0  0  0  0  0  0
    1.1530   -3.1810    3.0010 N   0  0  0  0  0  0  0  0  0  0  0  0
    1.2680   -1.3260   -0.1420 C   0  0  0  0  0  0  0  0  0  0  0  0
    0.0780   -0.4300   -0.2690 C   0  0  0  0  0  0  0  0  0  0  0  0
    0.1090    0.9300   -0.0480 N   0  0  0  0  0  0  0  0  0  0  0  0
    1.9280  -10.7160    0.8990 C   0  0  0  0  0  0  0  0  0  0  0  0
    2.6250   -1.9130    4.9080 S   0  0  0  0  0  0  0  0  0  0  0  0
    2.6570   -4.6450    5.3750 C   0  0  0  0  0  0  0  0  0  0  0  0
   -1.1400    1.4620   -0.2440 C   0  0  0  0  0  0  0  0  0  0  0  0
   -1.2240   -0.7520   -0.6130 C   0  0  0  0  0  0  0  0  0  0  0  0
   -1.9880    0.4370   -0.5960 C   0  0  0  0  0  0  0  0  0  0  0  0
    1.9330   -5.3330    4.4620 N   0  0  0  0  0  0  0  0  0  0  0  0
    2.8710  -10.1690    1.8080 O   0  0  0  0  0  0  0  0  0  0  0  0
    3.7710   -5.0010    5.7450 O   0  0  0  0  0  0  0  0  0  0  0  0
    2.0140   -3.3390    5.8330 C   0  0  0  0  0  0  0  0  0  0  0  0
    0.7480  -10.9870    1.5120 F   0  0  0  0  0  0  0  0  0  0  0  0
    1.7110   -9.8850   -0.1520 F   0  0  0  0  0  0  0  0  0  0  0  0
    2.4200  -11.8860    0.4090 F   0  0  0  0  0  0  0  0  0  0  0  0
    2.8720   -0.1380    2.2500 C   0  0  0  0  0  0  0  0  0  0  0  0
    2.1610   -6.5470    3.7980 C   0  0  0  0  0  0  0  0  0  0  0  0
    2.5470   -8.9650    2.4180 C   0  0  0  0  0  0  0  0  0  0  0  0
    3.3310   -7.2900    3.9840 C   0  0  0  0  0  0  0  0  0  0  0  0
    1.1860   -7.0320    2.9120 C   0  0  0  0  0  0  0  0  0  0  0  0
    1.3790   -8.2340    2.2260 C   0  0  0  0  0  0  0  0  0  0  0  0
    3.5210   -8.4930    3.2950 C   0  0  0  0  0  0  0  0  0  0  0  0
    1.2700    1.7030    0.3320 C   0  0  0  0  0  0  0  0  0  0  0  0
    1.1750   -2.1410   -0.8600 H   0  0  0  0  0  0  0  0  0  0  0  0
    2.1680   -0.7510   -0.3590 H   0  0  0  0  0  0  0  0  0  0  0  0
   -1.4100    2.5020   -0.1400 H   0  0  0  0  0  0  0  0  0  0  0  0
   -1.5910   -1.7390   -0.8520 H   0  0  0  0  0  0  0  0  0  0  0  0
   -3.0410    0.5250   -0.8180 H   0  0  0  0  0  0  0  0  0  0  0  0
    1.0620   -4.8870    4.2110 H   0  0  0  0  0  0  0  0  0  0  0  0
    0.9350   -3.4110    5.6930 H   0  0  0  0  0  0  0  0  0  0  0  0
    2.2340   -3.1920    6.8900 H   0  0  0  0  0  0  0  0  0  0  0  0
    2.8230    0.3070    1.2560 H   0  0  0  0  0  0  0  0  0  0  0  0
    3.9090   -0.3680    2.4940 H   0  0  0  0  0  0  0  0  0  0  0  0
    2.4730    0.5640    2.9830 H   0  0  0  0  0  0  0  0  0  0  0  0
    4.0920   -6.9340    4.6630 H   0  0  0  0  0  0  0  0  0  0  0  0
    0.2770   -6.4700    2.7590 H   0  0  0  0  0  0  0  0  0  0  0  0
    0.6210   -8.5960    1.5470 H   0  0  0  0  0  0  0  0  0  0  0  0
    4.4290   -9.0590    3.4440 H   0  0  0  0  0  0  0  0  0  0  0  0
    2.1330    1.0430    0.4220 H   0  0  0  0  0  0  0  0  0  0  0  0
    1.0850    2.1910    1.2890 H   0  0  0  0  0  0  0  0  0  0  0  0
    1.4680    2.4590   -0.4280 H   0  0  0  0  0  0  0  0  0  0  0  0
  1  2  1  0  0  0  0
  1  3  1  0  0  0  0
  1 22  1  0  0  0  0
  2  4  2  0  0  0  0
  2  6  1  0  0  0  0
  3  5  2  0  0  0  0
  3 10  1  0  0  0  0
  4  5  1  0  0  0  0
  6  7  1  0  0  0  0
  6 30  1  0  0  0  0
  6 31  1  0  0  0  0
  7  8  1  0  0  0  0
  7 13  2  0  0  0  0
  8 12  1  0  0  0  0
  8 29  1  0  0  0  0
  9 16  1  0  0  0  0
  9 19  1  0  0  0  0
  9 20  1  0  0  0  0
  9 21  1  0  0  0  0
 10 18  1  0  0  0  0
 11 15  1  0  0  0  0
 11 17  2  0  0  0  0
 11 18  1  0  0  0  0
 12 14  2  0  0  0  0
 12 32  1  0  0  0  0
 13 14  1  0  0  0  0
 13 33  1  0  0  0  0
 14 34  1  0  0  0  0
 15 23  1  0  0  0  0
 15 35  1  0  0  0  0
 16 24  1  0  0  0  0
 18 36  1  0  0  0  0
 18 37  1  0  0  0  0
 22 38  1  0  0  0  0
 22 39  1  0  0  0  0
 22 40  1  0  0  0  0
 23 25  1  0  0  0  0
 23 26  2  0  0  0  0
 24 27  2  0  0  0  0
 24 28  1  0  0  0  0
 25 28  2  0  0  0  0
 25 41  1  0  0  0  0
 26 27  1  0  0  0  0
 26 42  1  0  0  0  0
 27 43  1  0  0  0  0
 28 44  1  0  0  0  0
 29 45  1  0  0  0  0
 29 46  1  0  0  0  0
 29 47  1  0  0  0  0
M  END
>  <$CLUSTER>
454

>  <INDEX>
297500

$$$$
Life Chemicals F1812-0109
  MOE2020           3D

 52 54  0  0  0  0  0  0  0  0999 V2000
   -0.0740    0.0240    0.5210 N   0  0  0  0  0  0  0  0  0  0  0  0
    0.9400    0.6720   -0.1520 C   0  0  0  0  0  0  0  0  0  0  0  0
   -0.1940   -1.1960   -0.0910 C   0  0  0  0  0  0  0  0  0  0  0  0
    1.3950   -0.1190   -1.1040 N   0  0  0  0  0  0  0  0  0  0  0  0
    0.6820   -1.2930   -1.0650 N   0  0  0  0  0  0  0  0  0  0  0  0
    6.8710   -5.1300   -1.5510 N   0  3  0  0  0  0  0  0  0  0  0  0
    1.4360    2.0440    0.1460 C   0  0  0  0  0  0  0  0  0  0  0  0
    2.5960    2.0160    1.1290 C   0  0  0  0  0  0  0  0  0  0  0  0
    3.9150    1.9590    0.7510 N   0  0  0  0  0  0  0  0  0  0  0  0
   -1.3500   -2.3970    0.3740 S   0  0  0  0  0  0  0  0  0  0  0  0
    5.4790   -4.8460   -1.4550 C   0  0  0  0  0  0  0  0  0  0  0  0
    0.3440   -4.3970   -0.5360 C   0  0  0  0  0  0  0  0  0  0  0  0
    7.5930   -4.5160   -2.3550 O   0  5  0  0  0  0  0  0  0  0  0  0
    7.2900   -6.0160   -0.7870 O   0  0  0  0  0  0  0  0  0  0  0  0
    4.7110    1.9380    1.8680 C   0  0  0  0  0  0  0  0  0  0  0  0
    2.5610    2.0360    2.5070 C   0  0  0  0  0  0  0  0  0  0  0  0
    3.8940    1.9840    2.9740 C   0  0  0  0  0  0  0  0  0  0  0  0
    1.3770   -3.9070   -1.2600 N   0  0  0  0  0  0  0  0  0  0  0  0
    0.4840   -5.2590    0.3240 O   0  0  0  0  0  0  0  0  0  0  0  0
   -0.9930   -3.7140   -0.8080 C   0  0  0  0  0  0  0  0  0  0  0  0
    4.6580   -5.5250   -0.5590 C   0  0  0  0  0  0  0  0  0  0  0  0
    4.9380   -3.8640   -2.2800 C   0  0  0  0  0  0  0  0  0  0  0  0
   -0.8350    0.5440    1.6420 C   0  0  0  0  0  0  0  0  0  0  0  0
    2.7380   -4.2430   -1.3070 C   0  0  0  0  0  0  0  0  0  0  0  0
    3.5760   -3.5640   -2.2070 C   0  0  0  0  0  0  0  0  0  0  0  0
    3.2930   -5.2270   -0.4840 C   0  0  0  0  0  0  0  0  0  0  0  0
    4.4170    1.9260   -0.6040 C   0  0  0  0  0  0  0  0  0  0  0  0
   -2.8070    1.7580    2.3580 O   0  0  0  0  0  0  0  0  0  0  0  0
   -2.1010    1.2600    1.2020 C   0  0  0  0  0  0  0  0  0  0  0  0
   -4.0060    2.4430    1.9790 C   0  0  0  0  0  0  0  0  0  0  0  0
    0.6230    2.6290    0.5750 H   0  0  0  0  0  0  0  0  0  0  0  0
    1.7690    2.5100   -0.7820 H   0  0  0  0  0  0  0  0  0  0  0  0
    5.7900    1.8930    1.8780 H   0  0  0  0  0  0  0  0  0  0  0  0
    1.6730    2.0830    3.1200 H   0  0  0  0  0  0  0  0  0  0  0  0
    4.2120    1.9810    4.0060 H   0  0  0  0  0  0  0  0  0  0  0  0
    1.1190   -3.1570   -1.8850 H   0  0  0  0  0  0  0  0  0  0  0  0
   -0.9700   -3.2870   -1.8110 H   0  0  0  0  0  0  0  0  0  0  0  0
   -1.7850   -4.4600   -0.7490 H   0  0  0  0  0  0  0  0  0  0  0  0
    5.0770   -6.2860    0.0820 H   0  0  0  0  0  0  0  0  0  0  0  0
    5.5710   -3.3340   -2.9760 H   0  0  0  0  0  0  0  0  0  0  0  0
   -0.2100    1.2460    2.1940 H   0  0  0  0  0  0  0  0  0  0  0  0
   -1.1110   -0.2860    2.2930 H   0  0  0  0  0  0  0  0  0  0  0  0
    3.1620   -2.8010   -2.8500 H   0  0  0  0  0  0  0  0  0  0  0  0
    2.6650   -5.7600    0.2140 H   0  0  0  0  0  0  0  0  0  0  0  0
    3.5800    1.9530   -1.3020 H   0  0  0  0  0  0  0  0  0  0  0  0
    4.9890    1.0110   -0.7570 H   0  0  0  0  0  0  0  0  0  0  0  0
    5.0600    2.7890   -0.7740 H   0  0  0  0  0  0  0  0  0  0  0  0
   -2.7410    0.5640    0.6590 H   0  0  0  0  0  0  0  0  0  0  0  0
   -1.8380    2.0940    0.5520 H   0  0  0  0  0  0  0  0  0  0  0  0
   -4.5150    2.8060    2.8720 H   0  0  0  0  0  0  0  0  0  0  0  0
   -4.6610    1.7580    1.4410 H   0  0  0  0  0  0  0  0  0  0  0  0
   -3.7550    3.2860    1.3360 H   0  0  0  0  0  0  0  0  0  0  0  0
  1  2  1  0  0  0  0
  1  3  1  0  0  0  0
  1 23  1  0  0  0  0
  2  4  2  0  0  0  0
  2  7  1  0  0  0  0
  3  5  2  0  0  0  0
  3 10  1  0  0  0  0
  4  5  1  0  0  0  0
  6 11  1  0  0  0  0
  6 13  1  0  0  0  0
  6 14  2  0  0  0  0
  7  8  1  0  0  0  0
  7 31  1  0  0  0  0
  7 32  1  0  0  0  0
  8  9  1  0  0  0  0
  8 16  2  0  0  0  0
  9 15  1  0  0  0  0
  9 27  1  0  0  0  0
 10 20  1  0  0  0  0
 11 21  1  0  0  0  0
 11 22  2  0  0  0  0
 12 18  1  0  0  0  0
 12 19  2  0  0  0  0
 12 20  1  0  0  0  0
 15 17  2  0  0  0  0
 15 33  1  0  0  0  0
 16 17  1  0  0  0  0
 16 34  1  0  0  0  0
 17 35  1  0  0  0  0
 18 24  1  0  0  0  0
 18 36  1  0  0  0  0
 20 37  1  0  0  0  0
 20 38  1  0  0  0  0
 21 26  2  0  0  0  0
 21 39  1  0  0  0  0
 22 25  1  0  0  0  0
 22 40  1  0  0  0  0
 23 29  1  0  0  0  0
 23 41  1  0  0  0  0
 23 42  1  0  0  0  0
 24 25  2  0  0  0  0
 24 26  1  0  0  0  0
 25 43  1  0  0  0  0
 26 44  1  0  0  0  0
 27 45  1  0  0  0  0
 27 46  1  0  0  0  0
 27 47  1  0  0  0  0
 28 29  1  0  0  0  0
 28 30  1  0  0  0  0
 29 48  1  0  0  0  0
 29 49  1  0  0  0  0
 30 50  1  0  0  0  0
 30 51  1  0  0  0  0
 30 52  1  0  0  0  0
M  CHG  1   6   1
M  CHG  1  13  -1
M  END
>  <$CLUSTER>
455

>  <INDEX>
297540

$$$$
Life Chemicals F1300-0264
  MOE2020           3D

 30 31  0  0  0  0  0  0  0  0999 V2000
   -0.1640   -0.4950   -0.2880 C   0  0  0  0  0  0  0  0  0  0  0  0
   -0.7880   -1.6440   -0.4390 N   0  0  0  0  0  0  0  0  0  0  0  0
    0.0880   -2.5860   -0.9400 C   0  0  0  0  0  0  0  0  0  0  0  0
    1.4870   -0.4910   -0.7360 S   0  0  0  0  0  0  0  0  0  0  0  0
   -0.7950    0.6370    0.1990 N   0  0  0  0  0  0  0  0  0  0  0  0
    1.3720   -2.1440   -1.1660 C   0  0  0  0  0  0  0  0  0  0  0  0
   -0.2360   -3.9400   -1.2300 C   0  0  0  0  0  0  0  0  0  0  0  0
   -0.2290    1.8900    0.3940 C   0  0  0  0  0  0  0  0  0  0  0  0
    0.7520   -4.7900   -1.7350 C   0  0  0  0  0  0  0  0  0  0  0  0
    2.3800   -2.9940   -1.6760 C   0  0  0  0  0  0  0  0  0  0  0  0
    0.9250    2.2490    0.1800 O   0  0  0  0  0  0  0  0  0  0  0  0
    2.0430   -4.3210   -1.9550 C   0  0  0  0  0  0  0  0  0  0  0  0
   -1.6150   -4.4380   -0.9930 C   0  0  0  0  0  0  0  0  0  0  0  0
   -1.2460    2.8610    0.9420 C   0  0  0  0  0  0  0  0  0  0  0  0
    0.4110   -6.2160   -2.0420 C   0  0  0  0  0  0  0  0  0  0  0  0
   -0.6990    4.2610    1.1850 C   0  0  0  0  0  0  0  0  0  0  0  0
   -1.7720    0.5410    0.4380 H   0  0  0  0  0  0  0  0  0  0  0  0
    3.3820   -2.6280   -1.8450 H   0  0  0  0  0  0  0  0  0  0  0  0
    2.7940   -4.9910   -2.3460 H   0  0  0  0  0  0  0  0  0  0  0  0
   -2.2310   -3.6290   -0.6010 H   0  0  0  0  0  0  0  0  0  0  0  0
   -1.5870   -5.2560   -0.2730 H   0  0  0  0  0  0  0  0  0  0  0  0
   -2.0390   -4.7950   -1.9320 H   0  0  0  0  0  0  0  0  0  0  0  0
   -1.6180    2.4690    1.8890 H   0  0  0  0  0  0  0  0  0  0  0  0
   -2.0690    2.9330    0.2310 H   0  0  0  0  0  0  0  0  0  0  0  0
   -0.6380   -6.3970   -1.8070 H   0  0  0  0  0  0  0  0  0  0  0  0
    1.0370   -6.8770   -1.4420 H   0  0  0  0  0  0  0  0  0  0  0  0
    0.5860   -6.4120   -3.1000 H   0  0  0  0  0  0  0  0  0  0  0  0
    0.1260    4.2100    1.8950 H   0  0  0  0  0  0  0  0  0  0  0  0
   -1.4880    4.8940    1.5900 H   0  0  0  0  0  0  0  0  0  0  0  0
   -0.3430    4.6800    0.2440 H   0  0  0  0  0  0  0  0  0  0  0  0
  1  2  2  0  0  0  0
  1  4  1  0  0  0  0
  1  5  1  0  0  0  0
  2  3  1  0  0  0  0
  3  6  1  0  0  0  0
  3  7  2  0  0  0  0
  4  6  1  0  0  0  0
  5  8  1  0  0  0  0
  5 17  1  0  0  0  0
  6 10  2  0  0  0  0
  7  9  1  0  0  0  0
  7 13  1  0  0  0  0
  8 11  2  0  0  0  0
  8 14  1  0  0  0  0
  9 12  2  0  0  0  0
  9 15  1  0  0  0  0
 10 12  1  0  0  0  0
 10 18  1  0  0  0  0
 12 19  1  0  0  0  0
 13 20  1  0  0  0  0
 13 21  1  0  0  0  0
 13 22  1  0  0  0  0
 14 16  1  0  0  0  0
 14 23  1  0  0  0  0
 14 24  1  0  0  0  0
 15 25  1  0  0  0  0
 15 26  1  0  0  0  0
 15 27  1  0  0  0  0
 16 28  1  0  0  0  0
 16 29  1  0  0  0  0
 16 30  1  0  0  0  0
M  END
>  <$CLUSTER>
456

>  <INDEX>
292212

$$$$
Life Chemicals F1816-1148
  MOE2020           3D

 38 39  0  0  0  0  0  0  0  0999 V2000
   -0.9940   -1.2820    0.0970 C   0  0  0  0  0  0  0  0  0  0  0  0
   -0.0150   -0.5890    0.7950 N   0  0  0  0  0  0  0  0  0  0  0  0
   -1.1380   -0.6290   -1.5730 S   0  0  0  0  0  0  0  0  0  0  0  0
    0.6060    0.4420    0.0580 C   0  0  0  0  0  0  0  0  0  0  0  0
   -1.7080   -2.2560    0.5630 N   0  0  0  0  0  0  0  0  0  0  0  0
    0.1280    0.5670   -1.2450 C   0  0  0  0  0  0  0  0  0  0  0  0
    0.6160    1.5250   -2.1280 C   0  0  0  0  0  0  0  0  0  0  0  0
   -2.7100   -2.8920   -0.3020 C   0  0  0  0  0  0  0  0  0  0  0  0
   -0.4590    0.0070    3.1310 C   0  0  0  0  0  0  0  0  0  0  0  0
   -1.0740    0.6920    3.8530 C   0  0  0  0  0  0  0  0  0  0  0  0
    1.6090    1.3130    0.4930 C   0  0  0  0  0  0  0  0  0  0  0  0
    1.6180    2.3880   -1.6870 C   0  0  0  0  0  0  0  0  0  0  0  0
    2.1120    2.2830   -0.3820 C   0  0  0  0  0  0  0  0  0  0  0  0
    0.3340   -0.8780    2.1810 C   0  0  0  0  0  0  0  0  0  0  0  0
   -2.8620   -2.5030   -1.4460 O   0  0  0  0  0  0  0  0  0  0  0  0
    0.0840    1.6280   -3.5100 C   0  0  0  0  0  0  0  0  0  0  0  0
   -3.4300   -3.9670    0.3620 C   0  0  0  0  0  0  0  0  0  0  0  0
    3.1870    3.2130    0.0850 C   0  0  0  0  0  0  0  0  0  0  0  0
   -4.4630   -4.6170   -0.5380 C   0  0  0  0  0  0  0  0  0  0  0  0
   -5.2260   -5.7510    0.1520 C   0  0  0  0  0  0  0  0  0  0  0  0
   -1.6340    1.3160    4.5100 H   0  0  0  0  0  0  0  0  0  0  0  0
    1.9940    1.2380    1.4990 H   0  0  0  0  0  0  0  0  0  0  0  0
    2.0140    3.1390   -2.3540 H   0  0  0  0  0  0  0  0  0  0  0  0
    1.3990   -0.6960    2.3270 H   0  0  0  0  0  0  0  0  0  0  0  0
    0.1110   -1.9230    2.3960 H   0  0  0  0  0  0  0  0  0  0  0  0
   -0.6870    0.8720   -3.6600 H   0  0  0  0  0  0  0  0  0  0  0  0
    0.8930    1.4690   -4.2230 H   0  0  0  0  0  0  0  0  0  0  0  0
   -0.3450    2.6190   -3.6610 H   0  0  0  0  0  0  0  0  0  0  0  0
   -3.9360   -3.5600    1.2380 H   0  0  0  0  0  0  0  0  0  0  0  0
   -2.7130   -4.7260    0.6760 H   0  0  0  0  0  0  0  0  0  0  0  0
    3.4420    2.9830    1.1190 H   0  0  0  0  0  0  0  0  0  0  0  0
    2.8320    4.2410    0.0180 H   0  0  0  0  0  0  0  0  0  0  0  0
    4.0700    3.0920   -0.5430 H   0  0  0  0  0  0  0  0  0  0  0  0
   -3.9560   -5.0220   -1.4140 H   0  0  0  0  0  0  0  0  0  0  0  0
   -5.1790   -3.8570   -0.8520 H   0  0  0  0  0  0  0  0  0  0  0  0
   -4.5230   -6.5200    0.4720 H   0  0  0  0  0  0  0  0  0  0  0  0
   -5.9440   -6.1830   -0.5450 H   0  0  0  0  0  0  0  0  0  0  0  0
   -5.7540   -5.3580    1.0210 H   0  0  0  0  0  0  0  0  0  0  0  0
  1  2  1  0  0  0  0
  1  3  1  0  0  0  0
  1  5  2  0  0  0  0
  2  4  1  0  0  0  0
  2 14  1  0  0  0  0
  3  6  1  0  0  0  0
  4  6  2  0  0  0  0
  4 11  1  0  0  0  0
  5  8  1  0  0  0  0
  6  7  1  0  0  0  0
  7 12  2  0  0  0  0
  7 16  1  0  0  0  0
  8 15  2  0  0  0  0
  8 17  1  0  0  0  0
  9 10  3  0  0  0  0
  9 14  1  0  0  0  0
 10 21  1  0  0  0  0
 11 13  2  0  0  0  0
 11 22  1  0  0  0  0
 12 13  1  0  0  0  0
 12 23  1  0  0  0  0
 13 18  1  0  0  0  0
 14 24  1  0  0  0  0
 14 25  1  0  0  0  0
 16 26  1  0  0  0  0
 16 27  1  0  0  0  0
 16 28  1  0  0  0  0
 17 19  1  0  0  0  0
 17 29  1  0  0  0  0
 17 30  1  0  0  0  0
 18 31  1  0  0  0  0
 18 32  1  0  0  0  0
 18 33  1  0  0  0  0
 19 20  1  0  0  0  0
 19 34  1  0  0  0  0
 19 35  1  0  0  0  0
 20 36  1  0  0  0  0
 20 37  1  0  0  0  0
 20 38  1  0  0  0  0
M  END
>  <$CLUSTER>
457

>  <INDEX>
298142

$$$$
Life Chemicals F0566-0293
  MOE2020           3D

 49 52  0  0  0  0  0  0  0  0999 V2000
   -0.9940   -1.2820    0.0970 C   0  0  0  0  0  0  0  0  0  0  0  0
   -5.9230   -7.4020    2.0270 S   0  0  0  0  0  0  0  0  0  0  0  0
   -1.7080   -2.2560    0.5630 N   0  0  0  0  0  0  0  0  0  0  0  0
   -0.0150   -0.5890    0.7950 N   0  0  0  0  0  0  0  0  0  0  0  0
   -1.1380   -0.6290   -1.5730 S   0  0  0  0  0  0  0  0  0  0  0  0
    0.1280    0.5670   -1.2450 C   0  0  0  0  0  0  0  0  0  0  0  0
    0.6060    0.4420    0.0580 C   0  0  0  0  0  0  0  0  0  0  0  0
   -2.7100   -2.8920   -0.3020 C   0  0  0  0  0  0  0  0  0  0  0  0
   -4.7910   -8.5890    2.3610 N   0  0  0  0  0  0  0  0  0  0  0  0
   -4.9420   -6.0900    1.3770 C   0  0  0  0  0  0  0  0  0  0  0  0
    0.6160    1.5250   -2.1280 C   0  0  0  0  0  0  0  0  0  0  0  0
   -6.4920   -6.9710    3.2930 O   0  0  0  0  0  0  0  0  0  0  0  0
   -6.7890   -7.9030    0.9750 O   0  0  0  0  0  0  0  0  0  0  0  0
    1.6090    1.3130    0.4930 C   0  0  0  0  0  0  0  0  0  0  0  0
   -3.4300   -3.9670    0.3620 C   0  0  0  0  0  0  0  0  0  0  0  0
   -2.8620   -2.5030   -1.4460 O   0  0  0  0  0  0  0  0  0  0  0  0
   -4.4070   -5.1260    2.2300 C   0  0  0  0  0  0  0  0  0  0  0  0
   -4.7360   -5.9950    0.0020 C   0  0  0  0  0  0  0  0  0  0  0  0
   -3.6610   -4.0650    1.7120 C   0  0  0  0  0  0  0  0  0  0  0  0
   -3.9920   -4.9350   -0.5210 C   0  0  0  0  0  0  0  0  0  0  0  0
    1.6180    2.3880   -1.6870 C   0  0  0  0  0  0  0  0  0  0  0  0
    0.3340   -0.8780    2.1810 C   0  0  0  0  0  0  0  0  0  0  0  0
    2.1120    2.2830   -0.3820 C   0  0  0  0  0  0  0  0  0  0  0  0
    2.0530    3.2880   -2.5710 F   0  0  0  0  0  0  0  0  0  0  0  0
   -4.1270   -9.2610    1.2130 C   0  0  0  0  0  0  0  0  0  0  0  0
   -3.8380   -8.3520    3.4770 C   0  0  0  0  0  0  0  0  0  0  0  0
   -0.4590    0.0070    3.1310 C   0  0  0  0  0  0  0  0  0  0  0  0
   -2.7920   -9.4880    3.2480 C   0  0  0  0  0  0  0  0  0  0  0  0
   -3.2220  -10.2390    2.0050 C   0  0  0  0  0  0  0  0  0  0  0  0
    0.2270    1.5980   -3.1330 H   0  0  0  0  0  0  0  0  0  0  0  0
    1.9940    1.2380    1.4990 H   0  0  0  0  0  0  0  0  0  0  0  0
   -4.5700   -5.2000    3.2950 H   0  0  0  0  0  0  0  0  0  0  0  0
   -5.1520   -6.7410   -0.6590 H   0  0  0  0  0  0  0  0  0  0  0  0
   -3.2620   -3.3150    2.3790 H   0  0  0  0  0  0  0  0  0  0  0  0
   -3.8430   -4.8490   -1.5870 H   0  0  0  0  0  0  0  0  0  0  0  0
    1.3990   -0.6960    2.3270 H   0  0  0  0  0  0  0  0  0  0  0  0
    0.1110   -1.9230    2.3960 H   0  0  0  0  0  0  0  0  0  0  0  0
    2.8880    2.9560   -0.0470 H   0  0  0  0  0  0  0  0  0  0  0  0
   -3.5470   -8.5630    0.6090 H   0  0  0  0  0  0  0  0  0  0  0  0
   -4.8400   -9.7860    0.5770 H   0  0  0  0  0  0  0  0  0  0  0  0
   -4.3280   -8.4520    4.4460 H   0  0  0  0  0  0  0  0  0  0  0  0
   -3.3770   -7.3670    3.4030 H   0  0  0  0  0  0  0  0  0  0  0  0
   -0.2400    1.0540    2.9210 H   0  0  0  0  0  0  0  0  0  0  0  0
   -0.1810   -0.2230    4.1590 H   0  0  0  0  0  0  0  0  0  0  0  0
   -1.5250   -0.1760    2.9940 H   0  0  0  0  0  0  0  0  0  0  0  0
   -2.7760  -10.1610    4.1050 H   0  0  0  0  0  0  0  0  0  0  0  0
   -1.8000   -9.0600    3.1030 H   0  0  0  0  0  0  0  0  0  0  0  0
   -2.3520  -10.5180    1.4100 H   0  0  0  0  0  0  0  0  0  0  0  0
   -3.7790  -11.1360    2.2770 H   0  0  0  0  0  0  0  0  0  0  0  0
  1  3  2  0  0  0  0
  1  4  1  0  0  0  0
  1  5  1  0  0  0  0
  2  9  1  0  0  0  0
  2 10  1  0  0  0  0
  2 12  2  0  0  0  0
  2 13  2  0  0  0  0
  3  8  1  0  0  0  0
  4  7  1  0  0  0  0
  4 22  1  0  0  0  0
  5  6  1  0  0  0  0
  6  7  2  0  0  0  0
  6 11  1  0  0  0  0
  7 14  1  0  0  0  0
  8 15  1  0  0  0  0
  8 16  2  0  0  0  0
  9 25  1  0  0  0  0
  9 26  1  0  0  0  0
 10 17  2  0  0  0  0
 10 18  1  0  0  0  0
 11 21  2  0  0  0  0
 11 30  1  0  0  0  0
 14 23  2  0  0  0  0
 14 31  1  0  0  0  0
 15 19  2  0  0  0  0
 15 20  1  0  0  0  0
 17 19  1  0  0  0  0
 17 32  1  0  0  0  0
 18 20  2  0  0  0  0
 18 33  1  0  0  0  0
 19 34  1  0  0  0  0
 20 35  1  0  0  0  0
 21 23  1  0  0  0  0
 21 24  1  0  0  0  0
 22 27  1  0  0  0  0
 22 36  1  0  0  0  0
 22 37  1  0  0  0  0
 23 38  1  0  0  0  0
 25 29  1  0  0  0  0
 25 39  1  0  0  0  0
 25 40  1  0  0  0  0
 26 28  1  0  0  0  0
 26 41  1  0  0  0  0
 26 42  1  0  0  0  0
 27 43  1  0  0  0  0
 27 44  1  0  0  0  0
 27 45  1  0  0  0  0
 28 29  1  0  0  0  0
 28 46  1  0  0  0  0
 28 47  1  0  0  0  0
 29 48  1  0  0  0  0
 29 49  1  0  0  0  0
M  END
>  <$CLUSTER>
458

>  <INDEX>
274605

$$$$
Life Chemicals F1857-0019
  MOE2020           3D

 45 47  0  0  0  0  0  0  0  0999 V2000
   -0.3660   -0.9810   -0.4150 S   0  0  0  0  0  0  0  0  0  0  0  0
   -0.1860    0.6040   -0.6360 N   0  0  0  0  0  0  0  0  0  0  0  0
    0.4790    1.3060    0.2800 C   0  0  0  0  0  0  0  0  0  0  0  0
   -1.4860   -1.3160    0.9390 C   0  0  0  0  0  0  0  0  0  0  0  0
    0.9260   -1.5450   -0.0430 O   0  0  0  0  0  0  0  0  0  0  0  0
   -1.0120   -1.4880   -1.6200 O   0  0  0  0  0  0  0  0  0  0  0  0
   -0.9620   -1.3320    2.2240 C   0  0  0  0  0  0  0  0  0  0  0  0
    0.3360    2.6450    0.3000 N   0  3  0  0  0  0  0  0  0  0  0  0
   -1.8380   -1.5210    3.2940 C   0  0  0  0  0  0  0  0  0  0  0  0
   -2.8440   -1.3500    0.6900 C   0  0  0  0  0  0  0  0  0  0  0  0
    1.3100    0.7760    1.1960 N   0  0  0  0  0  0  0  0  0  0  0  0
   -3.2110   -1.6240    3.0640 C   0  0  0  0  0  0  0  0  0  0  0  0
   -3.7140   -1.5390    1.7650 C   0  0  0  0  0  0  0  0  0  0  0  0
    2.0630    1.4390    2.2070 C   0  0  0  0  0  0  0  0  0  0  0  0
    3.6760    1.1660    4.1330 C   0  0  0  0  0  0  0  0  0  0  0  0
   -1.3450   -1.5990    4.6200 C   0  0  0  0  0  0  0  0  0  0  0  0
    2.8780    0.4700    3.0450 C   0  0  0  0  0  0  0  0  0  0  0  0
   -4.0950   -1.7850    4.1680 C   0  0  0  0  0  0  0  0  0  0  0  0
    3.1080    1.3890    5.3900 C   0  0  0  0  0  0  0  0  0  0  0  0
    4.9650    1.6360    3.8690 C   0  0  0  0  0  0  0  0  0  0  0  0
   -2.2210   -1.7660    5.6930 C   0  0  0  0  0  0  0  0  0  0  0  0
   -3.5920   -1.8590    5.4670 C   0  0  0  0  0  0  0  0  0  0  0  0
    5.6880    2.3000    4.8610 C   0  0  0  0  0  0  0  0  0  0  0  0
    3.8320    2.0540    6.3810 C   0  0  0  0  0  0  0  0  0  0  0  0
    5.1220    2.5080    6.1160 C   0  0  0  0  0  0  0  0  0  0  0  0
   -0.5700    1.0570   -1.4530 H   0  0  0  0  0  0  0  0  0  0  0  0
    0.0970   -1.2010    2.3920 H   0  0  0  0  0  0  0  0  0  0  0  0
    0.8400    3.1970    0.9800 H   0  0  0  0  0  0  0  0  0  0  0  0
   -0.2750    3.0980   -0.3650 H   0  0  0  0  0  0  0  0  0  0  0  0
   -3.2240   -1.2330   -0.3140 H   0  0  0  0  0  0  0  0  0  0  0  0
    1.4140   -0.2280    1.1620 H   0  0  0  0  0  0  0  0  0  0  0  0
   -4.7770   -1.6190    1.5910 H   0  0  0  0  0  0  0  0  0  0  0  0
    1.3760    1.9760    2.8610 H   0  0  0  0  0  0  0  0  0  0  0  0
    2.7410    2.1480    1.7310 H   0  0  0  0  0  0  0  0  0  0  0  0
   -0.2830   -1.5290    4.8020 H   0  0  0  0  0  0  0  0  0  0  0  0
    3.5690   -0.0610    2.3910 H   0  0  0  0  0  0  0  0  0  0  0  0
    2.1990   -0.2440    3.5120 H   0  0  0  0  0  0  0  0  0  0  0  0
   -5.1600   -1.8500    3.9990 H   0  0  0  0  0  0  0  0  0  0  0  0
    2.1050    1.0460    5.5960 H   0  0  0  0  0  0  0  0  0  0  0  0
    5.4030    1.4850    2.8940 H   0  0  0  0  0  0  0  0  0  0  0  0
   -1.8350   -1.8230    6.7000 H   0  0  0  0  0  0  0  0  0  0  0  0
   -4.2680   -1.9890    6.3000 H   0  0  0  0  0  0  0  0  0  0  0  0
    6.6880    2.6530    4.6550 H   0  0  0  0  0  0  0  0  0  0  0  0
    3.3920    2.2170    7.3540 H   0  0  0  0  0  0  0  0  0  0  0  0
    5.6830    3.0210    6.8830 H   0  0  0  0  0  0  0  0  0  0  0  0
  1  2  1  0  0  0  0
  1  4  1  0  0  0  0
  1  5  2  0  0  0  0
  1  6  2  0  0  0  0
  2  3  1  0  0  0  0
  2 26  1  0  0  0  0
  3  8  2  0  0  0  0
  3 11  1  0  0  0  0
  4  7  2  0  0  0  0
  4 10  1  0  0  0  0
  7  9  1  0  0  0  0
  7 27  1  0  0  0  0
  8 28  1  0  0  0  0
  8 29  1  0  0  0  0
  9 12  2  0  0  0  0
  9 16  1  0  0  0  0
 10 13  2  0  0  0  0
 10 30  1  0  0  0  0
 11 14  1  0  0  0  0
 11 31  1  0  0  0  0
 12 13  1  0  0  0  0
 12 18  1  0  0  0  0
 13 32  1  0  0  0  0
 14 17  1  0  0  0  0
 14 33  1  0  0  0  0
 14 34  1  0  0  0  0
 15 17  1  0  0  0  0
 15 19  1  0  0  0  0
 15 20  2  0  0  0  0
 16 21  2  0  0  0  0
 16 35  1  0  0  0  0
 17 36  1  0  0  0  0
 17 37  1  0  0  0  0
 18 22  2  0  0  0  0
 18 38  1  0  0  0  0
 19 24  2  0  0  0  0
 19 39  1  0  0  0  0
 20 23  1  0  0  0  0
 20 40  1  0  0  0  0
 21 22  1  0  0  0  0
 21 41  1  0  0  0  0
 22 42  1  0  0  0  0
 23 25  2  0  0  0  0
 23 43  1  0  0  0  0
 24 25  1  0  0  0  0
 24 44  1  0  0  0  0
 25 45  1  0  0  0  0
M  CHG  1   8   1
M  END
>  <$CLUSTER>
459

>  <INDEX>
300109

$$$$
Life Chemicals F1872-0938
  MOE2020           3D

 37 39  0  0  0  0  0  0  0  0999 V2000
    0.1900    0.4570    0.1360 C   0  0  0  0  0  0  0  0  0  0  0  0
   -0.4590   -0.7040   -0.2050 N   0  0  0  0  0  0  0  0  0  0  0  0
   -0.6460    1.4700    0.2270 N   0  0  0  0  0  0  0  0  0  0  0  0
    1.9050    0.5350    0.3990 S   0  0  0  0  0  0  0  0  0  0  0  0
    0.5760   -2.2580   -1.8220 C   0  0  0  0  0  0  0  0  0  0  0  0
   -1.8780    0.9460   -0.0660 C   0  0  0  0  0  0  0  0  0  0  0  0
    0.0910   -2.0330   -0.4000 C   0  0  0  0  0  0  0  0  0  0  0  0
    1.5510    2.6550    2.1540 C   0  0  0  0  0  0  0  0  0  0  0  0
   -1.7900   -0.3980   -0.3380 C   0  0  0  0  0  0  0  0  0  0  0  0
    1.8520   -1.8820   -2.0670 O   0  0  0  0  0  0  0  0  0  0  0  0
    0.2940    3.1570    2.1090 N   0  0  0  0  0  0  0  0  0  0  0  0
   -0.0420   -2.7250   -2.9400 C   0  0  0  0  0  0  0  0  0  0  0  0
    2.0650   -2.1390   -3.3830 C   0  0  0  0  0  0  0  0  0  0  0  0
    0.9320   -2.6590   -3.9650 C   0  0  0  0  0  0  0  0  0  0  0  0
    2.1440    2.4400    3.2050 O   0  0  0  0  0  0  0  0  0  0  0  0
    2.1270    2.2840    0.7910 C   0  0  0  0  0  0  0  0  0  0  0  0
   -0.5780    3.6050    3.1120 C   0  0  0  0  0  0  0  0  0  0  0  0
   -2.3890    4.5120    5.0600 C   0  0  0  0  0  0  0  0  0  0  0  0
   -3.3010    4.9600    5.9230 F   0  0  0  0  0  0  0  0  0  0  0  0
   -0.2430    3.5550    4.4690 C   0  0  0  0  0  0  0  0  0  0  0  0
   -1.8330    4.1160    2.7450 C   0  0  0  0  0  0  0  0  0  0  0  0
   -1.1470    4.0070    5.4370 C   0  0  0  0  0  0  0  0  0  0  0  0
   -2.7330    4.5660    3.7130 C   0  0  0  0  0  0  0  0  0  0  0  0
   -2.7960    1.5140   -0.0810 H   0  0  0  0  0  0  0  0  0  0  0  0
   -0.6820   -2.7680   -0.1740 H   0  0  0  0  0  0  0  0  0  0  0  0
    0.9310   -2.1670    0.2810 H   0  0  0  0  0  0  0  0  0  0  0  0
   -2.5950   -1.0690   -0.6000 H   0  0  0  0  0  0  0  0  0  0  0  0
   -0.0880    3.2210    1.1760 H   0  0  0  0  0  0  0  0  0  0  0  0
   -1.0610   -3.0730   -3.0270 H   0  0  0  0  0  0  0  0  0  0  0  0
    2.9950   -1.9600   -3.9010 H   0  0  0  0  0  0  0  0  0  0  0  0
    0.8100   -2.9570   -4.9960 H   0  0  0  0  0  0  0  0  0  0  0  0
    1.6280    2.8800    0.0270 H   0  0  0  0  0  0  0  0  0  0  0  0
    3.1930    2.5100    0.7890 H   0  0  0  0  0  0  0  0  0  0  0  0
    0.7180    3.1660    4.7710 H   0  0  0  0  0  0  0  0  0  0  0  0
   -2.1060    4.1620    1.7010 H   0  0  0  0  0  0  0  0  0  0  0  0
   -0.8800    3.9640    6.4830 H   0  0  0  0  0  0  0  0  0  0  0  0
   -3.6960    4.9560    3.4160 H   0  0  0  0  0  0  0  0  0  0  0  0
  1  2  1  0  0  0  0
  1  3  2  0  0  0  0
  1  4  1  0  0  0  0
  2  7  1  0  0  0  0
  2  9  1  0  0  0  0
  3  6  1  0  0  0  0
  4 16  1  0  0  0  0
  5  7  1  0  0  0  0
  5 10  1  0  0  0  0
  5 12  2  0  0  0  0
  6  9  2  0  0  0  0
  6 24  1  0  0  0  0
  7 25  1  0  0  0  0
  7 26  1  0  0  0  0
  8 11  1  0  0  0  0
  8 15  2  0  0  0  0
  8 16  1  0  0  0  0
  9 27  1  0  0  0  0
 10 13  1  0  0  0  0
 11 17  1  0  0  0  0
 11 28  1  0  0  0  0
 12 14  1  0  0  0  0
 12 29  1  0  0  0  0
 13 14  2  0  0  0  0
 13 30  1  0  0  0  0
 14 31  1  0  0  0  0
 16 32  1  0  0  0  0
 16 33  1  0  0  0  0
 17 20  2  0  0  0  0
 17 21  1  0  0  0  0
 18 19  1  0  0  0  0
 18 22  2  0  0  0  0
 18 23  1  0  0  0  0
 20 22  1  0  0  0  0
 20 34  1  0  0  0  0
 21 23  2  0  0  0  0
 21 35  1  0  0  0  0
 22 36  1  0  0  0  0
 23 37  1  0  0  0  0
M  END
>  <$CLUSTER>
460

>  <INDEX>
301113

$$$$
Life Chemicals F0654-1442
  MOE2020           3D

 47 50  0  0  0  0  0  0  0  0999 V2000
   -0.3420   -1.2970   -0.4160 N   0  0  0  0  0  0  0  0  0  0  0  0
   -0.2900    0.3530    1.2830 N   0  0  0  0  0  0  0  0  0  0  0  0
    0.2910    1.2860    0.3800 C   0  0  0  0  0  0  0  0  0  0  0  0
   -0.6210   -0.9510    0.9190 C   0  0  0  0  0  0  0  0  0  0  0  0
    0.2300   -0.4500   -1.3780 C   0  0  0  0  0  0  0  0  0  0  0  0
    0.5600    0.9220   -0.9370 C   0  0  0  0  0  0  0  0  0  0  0  0
    0.5670    2.5250    0.8540 N   0  0  0  0  0  0  0  0  0  0  0  0
    1.1340    1.9080   -1.7550 C   0  0  0  0  0  0  0  0  0  0  0  0
    1.4110    3.1480   -1.2860 N   0  0  0  0  0  0  0  0  0  0  0  0
    1.1130    3.3900   -0.0060 C   0  0  0  0  0  0  0  0  0  0  0  0
    1.4240    4.7430    0.4820 C   0  0  0  0  0  0  0  0  0  0  0  0
    1.5590    1.6510   -3.4850 S   0  0  0  0  0  0  0  0  0  0  0  0
    1.0940    5.1970    2.1090 S   0  0  0  0  0  0  0  0  0  0  0  0
   -1.1270   -1.7550    1.7100 O   0  0  0  0  0  0  0  0  0  0  0  0
    0.4530   -0.8080   -2.5310 O   0  0  0  0  0  0  0  0  0  0  0  0
    3.5920    3.5220   -3.2880 C   0  0  0  0  0  0  0  0  0  0  0  0
    4.6640    3.2070   -4.0540 N   0  0  0  0  0  0  0  0  0  0  0  0
    1.9850    5.8030   -0.2130 C   0  0  0  0  0  0  0  0  0  0  0  0
    1.6950    6.7780    1.8730 C   0  0  0  0  0  0  0  0  0  0  0  0
    2.1410    6.9720    0.5870 C   0  0  0  0  0  0  0  0  0  0  0  0
    3.6960    3.9220   -2.1330 O   0  0  0  0  0  0  0  0  0  0  0  0
   -0.6830   -2.6610   -0.8130 C   0  0  0  0  0  0  0  0  0  0  0  0
   -0.5410    0.8120    2.6490 C   0  0  0  0  0  0  0  0  0  0  0  0
    2.2450    3.2640   -3.9550 C   0  0  0  0  0  0  0  0  0  0  0  0
    6.0450    3.2880   -3.8230 C   0  0  0  0  0  0  0  0  0  0  0  0
    6.5730    3.7320   -2.6070 C   0  0  0  0  0  0  0  0  0  0  0  0
    6.9290    2.9040   -4.8440 C   0  0  0  0  0  0  0  0  0  0  0  0
    8.3110    2.9640   -4.6520 C   0  0  0  0  0  0  0  0  0  0  0  0
    7.9580    3.7910   -2.4170 C   0  0  0  0  0  0  0  0  0  0  0  0
    8.8260    3.4080   -3.4370 C   0  0  0  0  0  0  0  0  0  0  0  0
    4.4230    2.8450   -4.9650 H   0  0  0  0  0  0  0  0  0  0  0  0
    2.2740    5.7490   -1.2520 H   0  0  0  0  0  0  0  0  0  0  0  0
    1.7220    7.5350    2.6420 H   0  0  0  0  0  0  0  0  0  0  0  0
    2.5600    7.9000    0.2260 H   0  0  0  0  0  0  0  0  0  0  0  0
   -1.1140   -3.1900    0.0370 H   0  0  0  0  0  0  0  0  0  0  0  0
    0.2170   -3.1790   -1.1440 H   0  0  0  0  0  0  0  0  0  0  0  0
   -1.4060   -2.6320   -1.6280 H   0  0  0  0  0  0  0  0  0  0  0  0
   -0.2210    1.8490    2.7480 H   0  0  0  0  0  0  0  0  0  0  0  0
    0.0180    0.1910    3.3490 H   0  0  0  0  0  0  0  0  0  0  0  0
   -1.6060    0.7380    2.8670 H   0  0  0  0  0  0  0  0  0  0  0  0
    1.5470    4.0450   -3.6550 H   0  0  0  0  0  0  0  0  0  0  0  0
    2.3760    3.2900   -5.0370 H   0  0  0  0  0  0  0  0  0  0  0  0
    5.9080    4.0310   -1.8100 H   0  0  0  0  0  0  0  0  0  0  0  0
    6.5360    2.5580   -5.7890 H   0  0  0  0  0  0  0  0  0  0  0  0
    8.9800    2.6660   -5.4460 H   0  0  0  0  0  0  0  0  0  0  0  0
    8.3560    4.1350   -1.4740 H   0  0  0  0  0  0  0  0  0  0  0  0
    9.8940    3.4550   -3.2860 H   0  0  0  0  0  0  0  0  0  0  0  0
  1  4  1  0  0  0  0
  1  5  1  0  0  0  0
  1 22  1  0  0  0  0
  2  3  1  0  0  0  0
  2  4  1  0  0  0  0
  2 23  1  0  0  0  0
  3  6  2  0  0  0  0
  3  7  1  0  0  0  0
  4 14  2  0  0  0  0
  5  6  1  0  0  0  0
  5 15  2  0  0  0  0
  6  8  1  0  0  0  0
  7 10  2  0  0  0  0
  8  9  2  0  0  0  0
  8 12  1  0  0  0  0
  9 10  1  0  0  0  0
 10 11  1  0  0  0  0
 11 13  1  0  0  0  0
 11 18  2  0  0  0  0
 12 24  1  0  0  0  0
 13 19  1  0  0  0  0
 16 17  1  0  0  0  0
 16 21  2  0  0  0  0
 16 24  1  0  0  0  0
 17 25  1  0  0  0  0
 17 31  1  0  0  0  0
 18 20  1  0  0  0  0
 18 32  1  0  0  0  0
 19 20  2  0  0  0  0
 19 33  1  0  0  0  0
 20 34  1  0  0  0  0
 22 35  1  0  0  0  0
 22 36  1  0  0  0  0
 22 37  1  0  0  0  0
 23 38  1  0  0  0  0
 23 39  1  0  0  0  0
 23 40  1  0  0  0  0
 24 41  1  0  0  0  0
 24 42  1  0  0  0  0
 25 26  1  0  0  0  0
 25 27  2  0  0  0  0
 26 29  2  0  0  0  0
 26 43  1  0  0  0  0
 27 28  1  0  0  0  0
 27 44  1  0  0  0  0
 28 30  2  0  0  0  0
 28 45  1  0  0  0  0
 29 30  1  0  0  0  0
 29 46  1  0  0  0  0
 30 47  1  0  0  0  0
M  END
>  <$CLUSTER>
461

>  <INDEX>
281674

$$$$
Life Chemicals F1895-0070
  MOE2020           3D

 46 49  0  0  0  0  0  0  0  0999 V2000
   -2.9820    2.6370   -1.2300 C   0  0  0  0  0  0  0  0  0  0  0  0
   -2.4470    1.8760   -2.2410 N   0  0  0  0  0  0  0  0  0  0  0  0
   -4.1310    2.5280   -0.6680 N   0  0  0  0  0  0  0  0  0  0  0  0
   -3.2560    0.8510   -2.7490 C   0  0  0  0  0  0  0  0  0  0  0  0
   -0.1640   -0.4950   -0.2880 C   0  0  0  0  0  0  0  0  0  0  0  0
   -4.4780    0.6910   -2.2320 C   0  0  0  0  0  0  0  0  0  0  0  0
   -0.7880   -1.6440   -0.4390 N   0  0  0  0  0  0  0  0  0  0  0  0
   -4.9730    1.5750   -1.1740 C   0  0  0  0  0  0  0  0  0  0  0  0
    1.4870   -0.4910   -0.7360 S   0  0  0  0  0  0  0  0  0  0  0  0
   -0.7950    0.6370    0.1990 N   0  0  0  0  0  0  0  0  0  0  0  0
    1.3720   -2.1440   -1.1660 C   0  0  0  0  0  0  0  0  0  0  0  0
    0.0880   -2.5860   -0.9400 C   0  0  0  0  0  0  0  0  0  0  0  0
   -1.9620    3.8840   -0.3970 S   0  0  0  0  0  0  0  0  0  0  0  0
   -1.1550    2.1100   -2.7910 C   0  0  0  0  0  0  0  0  0  0  0  0
   -0.2290    1.8900    0.3940 C   0  0  0  0  0  0  0  0  0  0  0  0
   -2.8860    0.0040   -3.7650 N   0  0  0  0  0  0  0  0  0  0  0  0
    2.3800   -2.9940   -1.6760 C   0  0  0  0  0  0  0  0  0  0  0  0
   -6.1210    1.4320   -0.7630 O   0  0  0  0  0  0  0  0  0  0  0  0
    0.9250    2.2490    0.1800 O   0  0  0  0  0  0  0  0  0  0  0  0
   -0.2360   -3.9400   -1.2300 C   0  0  0  0  0  0  0  0  0  0  0  0
   -1.2460    2.8610    0.9420 C   0  0  0  0  0  0  0  0  0  0  0  0
   -0.8850    3.2680   -3.5390 C   0  0  0  0  0  0  0  0  0  0  0  0
   -0.1120    1.1870   -2.5980 C   0  0  0  0  0  0  0  0  0  0  0  0
    2.0430   -4.3210   -1.9550 C   0  0  0  0  0  0  0  0  0  0  0  0
    1.4110    2.5810   -3.8530 C   0  0  0  0  0  0  0  0  0  0  0  0
    0.7520   -4.7900   -1.7350 C   0  0  0  0  0  0  0  0  0  0  0  0
    1.1610    1.4210   -3.1220 C   0  0  0  0  0  0  0  0  0  0  0  0
    0.3880    3.5030   -4.0640 C   0  0  0  0  0  0  0  0  0  0  0  0
    2.6530    2.7310   -4.3140 F   0  0  0  0  0  0  0  0  0  0  0  0
    3.0910   -5.2470   -2.4970 C   0  0  0  0  0  0  0  0  0  0  0  0
   -5.1110   -0.1030   -2.6000 H   0  0  0  0  0  0  0  0  0  0  0  0
   -1.7720    0.5410    0.4380 H   0  0  0  0  0  0  0  0  0  0  0  0
   -3.5280   -0.7040   -4.0920 H   0  0  0  0  0  0  0  0  0  0  0  0
   -1.9720    0.0890   -4.1850 H   0  0  0  0  0  0  0  0  0  0  0  0
    3.3820   -2.6280   -1.8450 H   0  0  0  0  0  0  0  0  0  0  0  0
   -1.2370   -4.3080   -1.0610 H   0  0  0  0  0  0  0  0  0  0  0  0
   -2.0450    2.3030    1.4310 H   0  0  0  0  0  0  0  0  0  0  0  0
   -0.7610    3.5130    1.6690 H   0  0  0  0  0  0  0  0  0  0  0  0
   -1.6730    3.9870   -3.7110 H   0  0  0  0  0  0  0  0  0  0  0  0
   -0.2980    0.2840   -2.0360 H   0  0  0  0  0  0  0  0  0  0  0  0
    0.5110   -5.8190   -1.9560 H   0  0  0  0  0  0  0  0  0  0  0  0
    1.9520    0.7030   -2.9610 H   0  0  0  0  0  0  0  0  0  0  0  0
    0.5790    4.4000   -4.6340 H   0  0  0  0  0  0  0  0  0  0  0  0
    4.0330   -4.7080   -2.6030 H   0  0  0  0  0  0  0  0  0  0  0  0
    2.7760   -5.6220   -3.4710 H   0  0  0  0  0  0  0  0  0  0  0  0
    3.2260   -6.0840   -1.8120 H   0  0  0  0  0  0  0  0  0  0  0  0
  1  2  1  0  0  0  0
  1  3  2  0  0  0  0
  1 13  1  0  0  0  0
  2  4  1  0  0  0  0
  2 14  1  0  0  0  0
  3  8  1  0  0  0  0
  4  6  2  0  0  0  0
  4 16  1  0  0  0  0
  5  7  2  0  0  0  0
  5  9  1  0  0  0  0
  5 10  1  0  0  0  0
  6  8  1  0  0  0  0
  6 31  1  0  0  0  0
  7 12  1  0  0  0  0
  8 18  2  0  0  0  0
  9 11  1  0  0  0  0
 10 15  1  0  0  0  0
 10 32  1  0  0  0  0
 11 12  2  0  0  0  0
 11 17  1  0  0  0  0
 12 20  1  0  0  0  0
 13 21  1  0  0  0  0
 14 22  1  0  0  0  0
 14 23  2  0  0  0  0
 15 19  2  0  0  0  0
 15 21  1  0  0  0  0
 16 33  1  0  0  0  0
 16 34  1  0  0  0  0
 17 24  2  0  0  0  0
 17 35  1  0  0  0  0
 20 26  2  0  0  0  0
 20 36  1  0  0  0  0
 21 37  1  0  0  0  0
 21 38  1  0  0  0  0
 22 28  2  0  0  0  0
 22 39  1  0  0  0  0
 23 27  1  0  0  0  0
 23 40  1  0  0  0  0
 24 26  1  0  0  0  0
 24 30  1  0  0  0  0
 25 27  2  0  0  0  0
 25 28  1  0  0  0  0
 25 29  1  0  0  0  0
 26 41  1  0  0  0  0
 27 42  1  0  0  0  0
 28 43  1  0  0  0  0
 30 44  1  0  0  0  0
 30 45  1  0  0  0  0
 30 46  1  0  0  0  0
M  END
>  <$CLUSTER>
462

>  <INDEX>
302198

$$$$
Life Chemicals F1899-0163
  MOE2020           3D

 44 46  0  0  0  0  0  0  0  0999 V2000
    0.5450    1.6560    0.6010 N   0  0  0  0  0  0  0  0  0  0  0  0
    3.5900    6.1440    1.1540 N   0  0  0  0  0  0  0  0  0  0  0  0
    1.5310    2.5210    0.9700 C   0  0  0  0  0  0  0  0  0  0  0  0
    2.8950    5.1340    1.6760 N   0  0  0  0  0  0  0  0  0  0  0  0
    1.8580    5.3960    2.5090 C   0  0  0  0  0  0  0  0  0  0  0  0
    3.2370    7.4180    1.4710 C   0  0  0  0  0  0  0  0  0  0  0  0
    0.9340    3.9980    3.2030 S   0  0  0  0  0  0  0  0  0  0  0  0
    4.0840    8.4810    0.8320 C   0  0  0  0  0  0  0  0  0  0  0  0
    1.8330    2.6090    2.4450 C   0  0  0  0  0  0  0  0  0  0  0  0
   -0.2610    0.7980    1.4750 C   0  0  0  0  0  0  0  0  0  0  0  0
    0.1630    1.4860   -0.8050 C   0  0  0  0  0  0  0  0  0  0  0  0
    2.1740    3.2170    0.1810 O   0  0  0  0  0  0  0  0  0  0  0  0
    2.1880    7.7310    2.3150 C   0  0  0  0  0  0  0  0  0  0  0  0
    4.3730    9.6970    1.4850 C   0  0  0  0  0  0  0  0  0  0  0  0
    4.6280    8.2880   -0.4550 C   0  0  0  0  0  0  0  0  0  0  0  0
    1.4700    6.6770    2.8550 C   0  0  0  0  0  0  0  0  0  0  0  0
    5.6780   10.4630   -0.4020 C   0  0  0  0  0  0  0  0  0  0  0  0
    5.4130    9.2680   -1.0650 C   0  0  0  0  0  0  0  0  0  0  0  0
    5.1600   10.6760    0.8730 C   0  0  0  0  0  0  0  0  0  0  0  0
    0.3310    0.0370   -1.2590 C   0  0  0  0  0  0  0  0  0  0  0  0
   -0.1100   -0.6770    1.1070 C   0  0  0  0  0  0  0  0  0  0  0  0
    6.6340   11.6500   -1.1580 Cl  0  0  0  0  0  0  0  0  0  0  0  0
   -0.4620   -0.9230   -0.3640 C   0  0  0  0  0  0  0  0  0  0  0  0
   -0.2060   -2.3770   -0.7550 C   0  0  0  0  0  0  0  0  0  0  0  0
    2.9040    2.7580    2.5830 H   0  0  0  0  0  0  0  0  0  0  0  0
    1.5300    1.6800    2.9280 H   0  0  0  0  0  0  0  0  0  0  0  0
   -1.3090    1.0810    1.3800 H   0  0  0  0  0  0  0  0  0  0  0  0
    0.0620    0.9400    2.5060 H   0  0  0  0  0  0  0  0  0  0  0  0
    0.7930    2.1260   -1.4230 H   0  0  0  0  0  0  0  0  0  0  0  0
   -0.8810    1.7770   -0.9260 H   0  0  0  0  0  0  0  0  0  0  0  0
    1.9380    8.7560    2.5440 H   0  0  0  0  0  0  0  0  0  0  0  0
    3.9790    9.8750    2.4750 H   0  0  0  0  0  0  0  0  0  0  0  0
    4.4330    7.3640   -0.9790 H   0  0  0  0  0  0  0  0  0  0  0  0
    0.6380    6.8490    3.5220 H   0  0  0  0  0  0  0  0  0  0  0  0
    5.8150    9.0990   -2.0530 H   0  0  0  0  0  0  0  0  0  0  0  0
    5.3670   11.6010    1.3910 H   0  0  0  0  0  0  0  0  0  0  0  0
    1.3870   -0.2280   -1.2160 H   0  0  0  0  0  0  0  0  0  0  0  0
   -0.0260   -0.0570   -2.2850 H   0  0  0  0  0  0  0  0  0  0  0  0
   -0.7750   -1.2700    1.7350 H   0  0  0  0  0  0  0  0  0  0  0  0
    0.9220   -0.9820    1.2810 H   0  0  0  0  0  0  0  0  0  0  0  0
   -1.5260   -0.7310   -0.5040 H   0  0  0  0  0  0  0  0  0  0  0  0
    0.8520   -2.6070   -0.6270 H   0  0  0  0  0  0  0  0  0  0  0  0
   -0.4870   -2.5280   -1.7970 H   0  0  0  0  0  0  0  0  0  0  0  0
   -0.8000   -3.0340   -0.1190 H   0  0  0  0  0  0  0  0  0  0  0  0
  1  3  1  0  0  0  0
  1 10  1  0  0  0  0
  1 11  1  0  0  0  0
  2  4  2  0  0  0  0
  2  6  1  0  0  0  0
  3  9  1  0  0  0  0
  3 12  2  0  0  0  0
  4  5  1  0  0  0  0
  5  7  1  0  0  0  0
  5 16  2  0  0  0  0
  6  8  1  0  0  0  0
  6 13  2  0  0  0  0
  7  9  1  0  0  0  0
  8 14  1  0  0  0  0
  8 15  2  0  0  0  0
  9 25  1  0  0  0  0
  9 26  1  0  0  0  0
 10 21  1  0  0  0  0
 10 27  1  0  0  0  0
 10 28  1  0  0  0  0
 11 20  1  0  0  0  0
 11 29  1  0  0  0  0
 11 30  1  0  0  0  0
 13 16  1  0  0  0  0
 13 31  1  0  0  0  0
 14 19  2  0  0  0  0
 14 32  1  0  0  0  0
 15 18  1  0  0  0  0
 15 33  1  0  0  0  0
 16 34  1  0  0  0  0
 17 18  2  0  0  0  0
 17 19  1  0  0  0  0
 17 22  1  0  0  0  0
 18 35  1  0  0  0  0
 19 36  1  0  0  0  0
 20 23  1  0  0  0  0
 20 37  1  0  0  0  0
 20 38  1  0  0  0  0
 21 23  1  0  0  0  0
 21 39  1  0  0  0  0
 21 40  1  0  0  0  0
 23 24  1  0  0  0  0
 23 41  1  0  0  0  0
 24 42  1  0  0  0  0
 24 43  1  0  0  0  0
 24 44  1  0  0  0  0
M  END
>  <$CLUSTER>
463

>  <INDEX>
302341

$$$$
EMC Microcollections 144G0013
  MOE2020           3D

 28 30  0  0  0  0  0  0  0  0999 V2000
   -2.0530    0.1400    1.2000 C   0  0  0  0  0  0  0  0  0  0  0  0
   -1.9460   -0.4750    0.0440 N   0  0  0  0  0  0  0  0  0  0  0  0
   -0.8620    0.6720    1.6080 N   0  0  0  0  0  0  0  0  0  0  0  0
    3.5660    0.5150   -0.7300 C   0  0  0  0  0  0  0  0  0  0  0  0
    0.0760    0.3820    0.6500 C   0  0  0  0  0  0  0  0  0  0  0  0
   -0.6260   -0.3340   -0.3150 C   0  0  0  0  0  0  0  0  0  0  0  0
    2.0970    0.2110   -0.5940 C   0  0  0  0  0  0  0  0  0  0  0  0
    1.4370    0.6750    0.5490 C   0  0  0  0  0  0  0  0  0  0  0  0
   -3.2830    0.2220    1.9310 C   0  0  0  0  0  0  0  0  0  0  0  0
    0.0540   -0.7930   -1.4560 C   0  0  0  0  0  0  0  0  0  0  0  0
    1.4200   -0.5100   -1.5800 C   0  0  0  0  0  0  0  0  0  0  0  0
    4.2680   -0.0050    0.3150 F   0  0  0  0  0  0  0  0  0  0  0  0
    3.7860    1.8580   -0.7190 F   0  0  0  0  0  0  0  0  0  0  0  0
    4.1520    0.0380   -1.8640 F   0  0  0  0  0  0  0  0  0  0  0  0
   -3.4460    1.1390    2.9730 C   0  0  0  0  0  0  0  0  0  0  0  0
   -4.3440   -0.6270    1.5900 C   0  0  0  0  0  0  0  0  0  0  0  0
   -4.6560    1.2000    3.6730 C   0  0  0  0  0  0  0  0  0  0  0  0
   -5.5520   -0.5640    2.2900 C   0  0  0  0  0  0  0  0  0  0  0  0
   -5.7070    0.3490    3.3330 C   0  0  0  0  0  0  0  0  0  0  0  0
   -0.7010    1.1870    2.4620 H   0  0  0  0  0  0  0  0  0  0  0  0
    1.9550    1.2320    1.3150 H   0  0  0  0  0  0  0  0  0  0  0  0
   -0.4650   -1.3520   -2.2200 H   0  0  0  0  0  0  0  0  0  0  0  0
    1.9580   -0.8540   -2.4510 H   0  0  0  0  0  0  0  0  0  0  0  0
   -2.6360    1.8020    3.2390 H   0  0  0  0  0  0  0  0  0  0  0  0
   -4.2280   -1.3340    0.7820 H   0  0  0  0  0  0  0  0  0  0  0  0
   -4.7760    1.9080    4.4790 H   0  0  0  0  0  0  0  0  0  0  0  0
   -6.3660   -1.2220    2.0230 H   0  0  0  0  0  0  0  0  0  0  0  0
   -6.6390    0.3970    3.8760 H   0  0  0  0  0  0  0  0  0  0  0  0
  1  2  2  0  0  0  0
  1  3  1  0  0  0  0
  1  9  1  0  0  0  0
  2  6  1  0  0  0  0
  3  5  1  0  0  0  0
  3 20  1  0  0  0  0
  4  7  1  0  0  0  0
  4 12  1  0  0  0  0
  4 13  1  0  0  0  0
  4 14  1  0  0  0  0
  5  6  1  0  0  0  0
  5  8  2  0  0  0  0
  6 10  2  0  0  0  0
  7  8  1  0  0  0  0
  7 11  2  0  0  0  0
  8 21  1  0  0  0  0
  9 15  2  0  0  0  0
  9 16  1  0  0  0  0
 10 11  1  0  0  0  0
 10 22  1  0  0  0  0
 11 23  1  0  0  0  0
 15 17  1  0  0  0  0
 15 24  1  0  0  0  0
 16 18  2  0  0  0  0
 16 25  1  0  0  0  0
 17 19  2  0  0  0  0
 17 26  1  0  0  0  0
 18 19  1  0  0  0  0
 18 27  1  0  0  0  0
 19 28  1  0  0  0  0
M  END
>  <$CLUSTER>
464

>  <INDEX>
225309

$$$$
Life Chemicals F2004-0167
  MOE2020           3D

 35 37  0  0  0  0  0  0  0  0999 V2000
    0.2110   -1.4040    0.7360 N   0  0  0  0  0  0  0  0  0  0  0  0
    0.2690    0.4450   -0.7990 C   0  0  0  0  0  0  0  0  0  0  0  0
   -0.1790   -2.0260    1.8880 N   0  0  0  0  0  0  0  0  0  0  0  0
   -0.2020   -0.1430    0.4650 C   0  0  0  0  0  0  0  0  0  0  0  0
    1.2990   -0.4500   -1.8550 S   0  0  0  0  0  0  0  0  0  0  0  0
    5.2370   -3.1910    3.3580 C   0  0  0  0  0  0  0  0  0  0  0  0
    3.8900   -3.3400    3.7040 C   0  0  0  0  0  0  0  0  0  0  0  0
    0.8830   -3.6830    4.1830 C   0  0  0  0  0  0  0  0  0  0  0  0
   -0.9780   -1.3710    2.7500 C   0  0  0  0  0  0  0  0  0  0  0  0
    1.5450   -3.5460    3.0110 N   0  0  0  0  0  0  0  0  0  0  0  0
    2.9090   -3.4040    2.7100 C   0  0  0  0  0  0  0  0  0  0  0  0
    5.6170   -3.1060    2.0210 C   0  0  0  0  0  0  0  0  0  0  0  0
    0.0090    1.6970   -1.3360 C   0  0  0  0  0  0  0  0  0  0  0  0
   -1.4720   -2.2070    4.2440 S   0  0  0  0  0  0  0  0  0  0  0  0
    1.3810    0.8210   -2.9900 C   0  0  0  0  0  0  0  0  0  0  0  0
    0.6470    1.9120   -2.5930 C   0  0  0  0  0  0  0  0  0  0  0  0
    1.4420   -3.6340    5.2730 O   0  0  0  0  0  0  0  0  0  0  0  0
   -1.0270    0.5420    1.3470 C   0  0  0  0  0  0  0  0  0  0  0  0
    4.6490   -3.1680    1.0230 C   0  0  0  0  0  0  0  0  0  0  0  0
   -0.6290   -3.8020    4.0380 C   0  0  0  0  0  0  0  0  0  0  0  0
    6.0990   -3.1400    4.3780 F   0  0  0  0  0  0  0  0  0  0  0  0
   -1.4250   -0.0880    2.5180 C   0  0  0  0  0  0  0  0  0  0  0  0
    3.3030   -3.3170    1.3650 C   0  0  0  0  0  0  0  0  0  0  0  0
    6.8780   -2.9640    1.6140 F   0  0  0  0  0  0  0  0  0  0  0  0
    3.6060   -3.4060    4.7440 H   0  0  0  0  0  0  0  0  0  0  0  0
    0.9440   -3.5460    2.1990 H   0  0  0  0  0  0  0  0  0  0  0  0
   -0.6140    2.4340   -0.8510 H   0  0  0  0  0  0  0  0  0  0  0  0
    1.9430    0.7730   -3.9110 H   0  0  0  0  0  0  0  0  0  0  0  0
    0.5630    2.8240   -3.1650 H   0  0  0  0  0  0  0  0  0  0  0  0
   -1.3530    1.5470    1.1260 H   0  0  0  0  0  0  0  0  0  0  0  0
    4.9380   -3.1010   -0.0150 H   0  0  0  0  0  0  0  0  0  0  0  0
   -1.0000   -4.4940    4.7940 H   0  0  0  0  0  0  0  0  0  0  0  0
   -0.8560   -4.1920    3.0460 H   0  0  0  0  0  0  0  0  0  0  0  0
   -2.0670    0.4130    3.2270 H   0  0  0  0  0  0  0  0  0  0  0  0
    2.5570   -3.3660    0.5860 H   0  0  0  0  0  0  0  0  0  0  0  0
  1  3  2  0  0  0  0
  1  4  1  0  0  0  0
  2  4  1  0  0  0  0
  2  5  1  0  0  0  0
  2 13  2  0  0  0  0
  3  9  1  0  0  0  0
  4 18  2  0  0  0  0
  5 15  1  0  0  0  0
  6  7  2  0  0  0  0
  6 12  1  0  0  0  0
  6 21  1  0  0  0  0
  7 11  1  0  0  0  0
  7 25  1  0  0  0  0
  8 10  1  0  0  0  0
  8 17  2  0  0  0  0
  8 20  1  0  0  0  0
  9 14  1  0  0  0  0
  9 22  2  0  0  0  0
 10 11  1  0  0  0  0
 10 26  1  0  0  0  0
 11 23  2  0  0  0  0
 12 19  2  0  0  0  0
 12 24  1  0  0  0  0
 13 16  1  0  0  0  0
 13 27  1  0  0  0  0
 14 20  1  0  0  0  0
 15 16  2  0  0  0  0
 15 28  1  0  0  0  0
 16 29  1  0  0  0  0
 18 22  1  0  0  0  0
 18 30  1  0  0  0  0
 19 23  1  0  0  0  0
 19 31  1  0  0  0  0
 20 32  1  0  0  0  0
 20 33  1  0  0  0  0
 22 34  1  0  0  0  0
 23 35  1  0  0  0  0
M  END
>  <$CLUSTER>
465

>  <INDEX>
302841

$$$$
Life Chemicals F2016-0215
  MOE2020           3D

 54 57  0  0  0  0  0  0  0  0999 V2000
   -0.1080    1.2120   -0.3800 N   0  0  0  0  0  0  0  0  0  0  0  0
   -0.9980   -0.7510   -0.9210 C   0  0  0  0  0  0  0  0  0  0  0  0
   -0.8280    0.5480   -1.3400 C   0  0  0  0  0  0  0  0  0  0  0  0
   -0.3550   -0.8870    0.3470 C   0  0  0  0  0  0  0  0  0  0  0  0
    0.1970    0.3620    0.6630 C   0  0  0  0  0  0  0  0  0  0  0  0
    1.6490    2.8070   -1.0620 C   0  0  0  0  0  0  0  0  0  0  0  0
    0.2630    2.6150   -0.4720 C   0  0  0  0  0  0  0  0  0  0  0  0
    1.8470    2.4910   -2.4170 N   0  0  0  0  0  0  0  0  0  0  0  0
   -1.8370   -2.0520   -1.7430 S   0  0  0  0  0  0  0  0  0  0  0  0
   -1.2390   -0.9530   -4.2080 C   0  0  0  0  0  0  0  0  0  0  0  0
   -1.0100   -1.8940   -5.1550 N   0  0  0  0  0  0  0  0  0  0  0  0
    2.5740    3.2210   -0.3580 O   0  0  0  0  0  0  0  0  0  0  0  0
   -0.0630   -1.9850   -6.1840 C   0  0  0  0  0  0  0  0  0  0  0  0
    0.9190   -1.0100   -6.3820 C   0  0  0  0  0  0  0  0  0  0  0  0
   -0.5320    0.0400   -4.0750 O   0  0  0  0  0  0  0  0  0  0  0  0
   -2.4010   -1.2740   -3.2690 C   0  0  0  0  0  0  0  0  0  0  0  0
    1.8490   -1.1440   -7.4190 C   0  0  0  0  0  0  0  0  0  0  0  0
    2.8120   -0.2510   -7.6640 F   0  0  0  0  0  0  0  0  0  0  0  0
   -0.1840   -1.9500    1.2620 C   0  0  0  0  0  0  0  0  0  0  0  0
    3.1740    2.6170   -3.0060 C   0  0  0  0  0  0  0  0  0  0  0  0
    0.7980    2.0050   -3.3100 C   0  0  0  0  0  0  0  0  0  0  0  0
    0.9110    0.5810    1.8530 C   0  0  0  0  0  0  0  0  0  0  0  0
    0.8330   -3.2260   -8.0780 C   0  0  0  0  0  0  0  0  0  0  0  0
   -0.0970   -3.0950   -7.0440 C   0  0  0  0  0  0  0  0  0  0  0  0
    1.8070   -2.2500   -8.2650 C   0  0  0  0  0  0  0  0  0  0  0  0
    0.5240   -1.7370    2.4490 C   0  0  0  0  0  0  0  0  0  0  0  0
    3.1120    3.5450   -4.2310 C   0  0  0  0  0  0  0  0  0  0  0  0
    0.7010    2.9240   -4.5400 C   0  0  0  0  0  0  0  0  0  0  0  0
    1.0640   -0.4890    2.7380 C   0  0  0  0  0  0  0  0  0  0  0  0
    2.0460    3.1140   -5.2330 C   0  0  0  0  0  0  0  0  0  0  0  0
   -1.1970    0.9710   -2.2630 H   0  0  0  0  0  0  0  0  0  0  0  0
    0.2440    3.0490    0.5280 H   0  0  0  0  0  0  0  0  0  0  0  0
   -0.4610    3.1280   -1.1040 H   0  0  0  0  0  0  0  0  0  0  0  0
   -1.6430   -2.6800   -5.1110 H   0  0  0  0  0  0  0  0  0  0  0  0
    0.9600   -0.1490   -5.7310 H   0  0  0  0  0  0  0  0  0  0  0  0
   -2.9200   -0.3480   -3.0220 H   0  0  0  0  0  0  0  0  0  0  0  0
   -3.0880   -1.9510   -3.7770 H   0  0  0  0  0  0  0  0  0  0  0  0
   -0.5990   -2.9230    1.0450 H   0  0  0  0  0  0  0  0  0  0  0  0
    3.5280    1.6330   -3.3140 H   0  0  0  0  0  0  0  0  0  0  0  0
    3.8590    3.0350   -2.2690 H   0  0  0  0  0  0  0  0  0  0  0  0
   -0.1560    2.0030   -2.7820 H   0  0  0  0  0  0  0  0  0  0  0  0
    1.0370    0.9910   -3.6320 H   0  0  0  0  0  0  0  0  0  0  0  0
    1.3300    1.5510    2.0780 H   0  0  0  0  0  0  0  0  0  0  0  0
    0.7960   -4.0850   -8.7320 H   0  0  0  0  0  0  0  0  0  0  0  0
   -0.8510   -3.8560   -6.9040 H   0  0  0  0  0  0  0  0  0  0  0  0
    2.5280   -2.3500   -9.0630 H   0  0  0  0  0  0  0  0  0  0  0  0
    0.6530   -2.5500    3.1480 H   0  0  0  0  0  0  0  0  0  0  0  0
    4.0830    3.5360   -4.7270 H   0  0  0  0  0  0  0  0  0  0  0  0
    2.8860    4.5560   -3.8930 H   0  0  0  0  0  0  0  0  0  0  0  0
    0.3310    3.8980   -4.2200 H   0  0  0  0  0  0  0  0  0  0  0  0
    0.0000    2.4850   -5.2500 H   0  0  0  0  0  0  0  0  0  0  0  0
    1.6090   -0.3450    3.6590 H   0  0  0  0  0  0  0  0  0  0  0  0
    2.3470    2.1730   -5.6940 H   0  0  0  0  0  0  0  0  0  0  0  0
    1.9470    3.8800   -6.0020 H   0  0  0  0  0  0  0  0  0  0  0  0
  1  3  1  0  0  0  0
  1  5  1  0  0  0  0
  1  7  1  0  0  0  0
  2  3  2  0  0  0  0
  2  4  1  0  0  0  0
  2  9  1  0  0  0  0
  3 31  1  0  0  0  0
  4  5  2  0  0  0  0
  4 19  1  0  0  0  0
  5 22  1  0  0  0  0
  6  7  1  0  0  0  0
  6  8  1  0  0  0  0
  6 12  2  0  0  0  0
  7 32  1  0  0  0  0
  7 33  1  0  0  0  0
  8 20  1  0  0  0  0
  8 21  1  0  0  0  0
  9 16  1  0  0  0  0
 10 11  1  0  0  0  0
 10 15  2  0  0  0  0
 10 16  1  0  0  0  0
 11 13  1  0  0  0  0
 11 34  1  0  0  0  0
 13 14  2  0  0  0  0
 13 24  1  0  0  0  0
 14 17  1  0  0  0  0
 14 35  1  0  0  0  0
 16 36  1  0  0  0  0
 16 37  1  0  0  0  0
 17 18  1  0  0  0  0
 17 25  2  0  0  0  0
 19 26  2  0  0  0  0
 19 38  1  0  0  0  0
 20 27  1  0  0  0  0
 20 39  1  0  0  0  0
 20 40  1  0  0  0  0
 21 28  1  0  0  0  0
 21 41  1  0  0  0  0
 21 42  1  0  0  0  0
 22 29  2  0  0  0  0
 22 43  1  0  0  0  0
 23 24  2  0  0  0  0
 23 25  1  0  0  0  0
 23 44  1  0  0  0  0
 24 45  1  0  0  0  0
 25 46  1  0  0  0  0
 26 29  1  0  0  0  0
 26 47  1  0  0  0  0
 27 30  1  0  0  0  0
 27 48  1  0  0  0  0
 27 49  1  0  0  0  0
 28 30  1  0  0  0  0
 28 50  1  0  0  0  0
 28 51  1  0  0  0  0
 29 52  1  0  0  0  0
 30 53  1  0  0  0  0
 30 54  1  0  0  0  0
M  END
>  <$CLUSTER>
466

>  <INDEX>
303747

$$$$
Comgenex CGX-3063480
  MOE2020           3D

 56 58  0  0  1  0  0  0  0  0999 V2000
    0.0940    0.1680   -1.3170 C   0  0  0  0  0  0  0  0  0  0  0  0
    1.3350   -0.3570   -1.2900 C   0  0  0  0  0  0  0  0  0  0  0  0
    1.6090   -1.4650   -0.4660 N   0  0  0  0  0  0  0  0  0  0  0  0
   -1.0690   -0.4140   -0.5590 C   0  0  3  0  0  0  0  0  0  0  0  0
    0.5960   -2.1950    0.1820 C   0  0  0  0  0  0  0  0  0  0  0  0
   -0.8200   -1.8880   -0.2530 C   0  0  0  0  0  0  0  0  0  0  0  0
   -0.2240    1.3510   -2.1360 C   0  0  0  0  0  0  0  0  0  0  0  0
   -1.4310    0.3950    0.6800 C   0  0  0  0  0  0  0  0  0  0  0  0
    2.9940   -1.8930   -0.2080 C   0  0  0  0  0  0  0  0  0  0  0  0
    3.5940   -1.1650    0.9870 C   0  0  0  0  0  0  0  0  0  0  0  0
    0.7980   -3.0970    0.9990 O   0  0  0  0  0  0  0  0  0  0  0  0
    4.3930   -0.1100    0.6690 N   0  0  0  0  0  0  0  0  0  0  0  0
   -0.5340    0.5760    1.7450 C   0  0  0  0  0  0  0  0  0  0  0  0
   -0.9390    1.3380   -3.1250 O   0  0  0  0  0  0  0  0  0  0  0  0
    3.3650   -1.4760    2.1580 O   0  0  0  0  0  0  0  0  0  0  0  0
    2.4760    0.2180   -2.1020 C   0  0  0  0  0  0  0  0  0  0  0  0
   -0.8980    1.3280    2.8650 C   0  0  0  0  0  0  0  0  0  0  0  0
    0.3400    2.4560   -1.5940 O   0  0  0  0  0  0  0  0  0  0  0  0
    5.0770    0.7470    1.5960 C   0  0  0  0  0  0  0  0  0  0  0  0
    2.5290    3.9820    2.9390 C   0  0  0  0  0  0  0  0  0  0  0  0
    4.1810    1.8770    2.0660 C   0  0  0  0  0  0  0  0  0  0  0  0
   -0.0930    1.5350    3.9090 F   0  0  0  0  0  0  0  0  0  0  0  0
    1.7700    5.0240    3.2800 F   0  0  0  0  0  0  0  0  0  0  0  0
    2.7010    2.8520    3.7390 C   0  0  0  0  0  0  0  0  0  0  0  0
    3.1720    4.0650    1.7030 C   0  0  0  0  0  0  0  0  0  0  0  0
    3.5210    1.8050    3.3070 C   0  0  0  0  0  0  0  0  0  0  0  0
    3.9910    3.0200    1.2690 C   0  0  0  0  0  0  0  0  0  0  0  0
   -2.6990    0.9910    0.7680 C   0  0  0  0  0  0  0  0  0  0  0  0
   -3.0610    1.7430    1.8880 C   0  0  0  0  0  0  0  0  0  0  0  0
   -2.1610    1.9110    2.9360 C   0  0  0  0  0  0  0  0  0  0  0  0
    0.1070    3.7000   -2.2800 C   0  0  0  0  0  0  0  0  0  0  0  0
    0.8350    4.8060   -1.5430 C   0  0  0  0  0  0  0  0  0  0  0  0
   -1.9480   -0.3530   -1.2010 H   0  0  0  0  0  0  0  0  0  0  0  0
   -1.0350   -2.4660   -1.1520 H   0  0  0  0  0  0  0  0  0  0  0  0
   -1.4970   -2.1920    0.5450 H   0  0  0  0  0  0  0  0  0  0  0  0
    3.5990   -1.6830   -1.0900 H   0  0  0  0  0  0  0  0  0  0  0  0
    3.0020   -2.9650   -0.0090 H   0  0  0  0  0  0  0  0  0  0  0  0
    4.5170    0.0890   -0.3130 H   0  0  0  0  0  0  0  0  0  0  0  0
    0.4480    0.1290    1.6980 H   0  0  0  0  0  0  0  0  0  0  0  0
    3.3790   -0.3650   -1.9230 H   0  0  0  0  0  0  0  0  0  0  0  0
    2.6470    1.2530   -1.8060 H   0  0  0  0  0  0  0  0  0  0  0  0
    2.2230    0.1800   -3.1620 H   0  0  0  0  0  0  0  0  0  0  0  0
    5.9550    1.1700    1.1070 H   0  0  0  0  0  0  0  0  0  0  0  0
    5.3890    0.1590    2.4590 H   0  0  0  0  0  0  0  0  0  0  0  0
    2.2000    2.7860    4.6930 H   0  0  0  0  0  0  0  0  0  0  0  0
    3.0360    4.9380    1.0820 H   0  0  0  0  0  0  0  0  0  0  0  0
    3.6490    0.9330    3.9310 H   0  0  0  0  0  0  0  0  0  0  0  0
    4.4840    3.0910    0.3110 H   0  0  0  0  0  0  0  0  0  0  0  0
   -3.4040    0.8660   -0.0410 H   0  0  0  0  0  0  0  0  0  0  0  0
   -4.0410    2.1950    1.9410 H   0  0  0  0  0  0  0  0  0  0  0  0
   -2.4410    2.4920    3.8020 H   0  0  0  0  0  0  0  0  0  0  0  0
   -0.9620    3.9140   -2.2990 H   0  0  0  0  0  0  0  0  0  0  0  0
    0.4820    3.6310   -3.3010 H   0  0  0  0  0  0  0  0  0  0  0  0
    0.4580    4.8720   -0.5220 H   0  0  0  0  0  0  0  0  0  0  0  0
    0.6680    5.7540   -2.0540 H   0  0  0  0  0  0  0  0  0  0  0  0
    1.9030    4.5870   -1.5220 H   0  0  0  0  0  0  0  0  0  0  0  0
  1  2  2  0  0  0  0
  1  4  1  0  0  0  0
  1  7  1  0  0  0  0
  2  3  1  0  0  0  0
  2 16  1  0  0  0  0
  3  5  1  0  0  0  0
  3  9  1  0  0  0  0
  4  6  1  0  0  0  0
  4  8  1  0  0  0  0
  4 33  1  0  0  0  0
  5  6  1  0  0  0  0
  5 11  2  0  0  0  0
  6 34  1  0  0  0  0
  6 35  1  0  0  0  0
  7 14  2  0  0  0  0
  7 18  1  0  0  0  0
  8 13  2  0  0  0  0
  8 28  1  0  0  0  0
  9 10  1  0  0  0  0
  9 36  1  0  0  0  0
  9 37  1  0  0  0  0
 10 12  1  0  0  0  0
 10 15  2  0  0  0  0
 12 19  1  0  0  0  0
 12 38  1  0  0  0  0
 13 17  1  0  0  0  0
 13 39  1  0  0  0  0
 16 40  1  0  0  0  0
 16 41  1  0  0  0  0
 16 42  1  0  0  0  0
 17 22  1  0  0  0  0
 17 30  2  0  0  0  0
 18 31  1  0  0  0  0
 19 21  1  0  0  0  0
 19 43  1  0  0  0  0
 19 44  1  0  0  0  0
 20 23  1  0  0  0  0
 20 24  2  0  0  0  0
 20 25  1  0  0  0  0
 21 26  2  0  0  0  0
 21 27  1  0  0  0  0
 24 26  1  0  0  0  0
 24 45  1  0  0  0  0
 25 27  2  0  0  0  0
 25 46  1  0  0  0  0
 26 47  1  0  0  0  0
 27 48  1  0  0  0  0
 28 29  2  0  0  0  0
 28 49  1  0  0  0  0
 29 30  1  0  0  0  0
 29 50  1  0  0  0  0
 30 51  1  0  0  0  0
 31 32  1  0  0  0  0
 31 52  1  0  0  0  0
 31 53  1  0  0  0  0
 32 54  1  0  0  0  0
 32 55  1  0  0  0  0
 32 56  1  0  0  0  0
M  END
>  <$CLUSTER>
467

>  <INDEX>
256830

$$$$
Life Chemicals F2556-0122
  MOE2020           3D

 35 37  0  0  0  0  0  0  0  0999 V2000
   -1.5940   -0.3920   -0.9960 S   0  0  0  0  0  0  0  0  0  0  0  0
    0.7910   -0.0990    0.4360 C   0  0  0  0  0  0  0  0  0  0  0  0
    1.3290   -1.3440   -0.1250 C   0  0  0  0  0  0  0  0  0  0  0  0
   -0.4470    0.4430    0.0730 C   0  0  0  0  0  0  0  0  0  0  0  0
    1.5540   -2.3400    0.7960 N   0  0  0  0  0  0  0  0  0  0  0  0
    2.6610   -5.7490    1.6840 C   0  0  0  0  0  0  0  0  0  0  0  0
    3.6140   -7.8750    0.5600 S   0  0  0  0  0  0  0  0  0  0  0  0
    3.0420   -6.2630    0.4480 C   0  0  0  0  0  0  0  0  0  0  0  0
    3.3700   -7.9260    2.2460 C   0  0  0  0  0  0  0  0  0  0  0  0
   -2.9170    0.1340   -0.7160 O   0  0  0  0  0  0  0  0  0  0  0  0
   -1.3560   -1.8180   -0.9060 O   0  0  0  0  0  0  0  0  0  0  0  0
    2.0530   -3.6390    0.6330 C   0  0  0  0  0  0  0  0  0  0  0  0
    1.5540   -1.4340   -1.3260 O   0  0  0  0  0  0  0  0  0  0  0  0
    2.1700   -4.4450    1.7760 C   0  0  0  0  0  0  0  0  0  0  0  0
    2.8620   -6.7440    2.7290 C   0  0  0  0  0  0  0  0  0  0  0  0
    2.9300   -5.4720   -0.6930 C   0  0  0  0  0  0  0  0  0  0  0  0
   -1.1360    0.1580   -2.6190 C   0  0  0  0  0  0  0  0  0  0  0  0
    2.4390   -4.1650   -0.6040 C   0  0  0  0  0  0  0  0  0  0  0  0
    1.6140    0.5880    1.3400 C   0  0  0  0  0  0  0  0  0  0  0  0
   -0.8570    1.6640    0.6250 C   0  0  0  0  0  0  0  0  0  0  0  0
    1.2010    1.8040    1.8830 C   0  0  0  0  0  0  0  0  0  0  0  0
   -0.0320    2.3410    1.5240 C   0  0  0  0  0  0  0  0  0  0  0  0
    1.3210   -2.0940    1.7480 H   0  0  0  0  0  0  0  0  0  0  0  0
    3.5890   -8.7860    2.8620 H   0  0  0  0  0  0  0  0  0  0  0  0
    1.8770   -4.0520    2.7380 H   0  0  0  0  0  0  0  0  0  0  0  0
    2.6360   -6.5710    3.7710 H   0  0  0  0  0  0  0  0  0  0  0  0
    3.2240   -5.8700   -1.6530 H   0  0  0  0  0  0  0  0  0  0  0  0
   -1.3100    1.2310   -2.7020 H   0  0  0  0  0  0  0  0  0  0  0  0
   -1.7360   -0.3660   -3.3630 H   0  0  0  0  0  0  0  0  0  0  0  0
   -0.0800   -0.0530   -2.7900 H   0  0  0  0  0  0  0  0  0  0  0  0
    2.3580   -3.5590   -1.4950 H   0  0  0  0  0  0  0  0  0  0  0  0
    2.5720    0.1730    1.6170 H   0  0  0  0  0  0  0  0  0  0  0  0
   -1.8150    2.0830    0.3540 H   0  0  0  0  0  0  0  0  0  0  0  0
    1.8370    2.3280    2.5810 H   0  0  0  0  0  0  0  0  0  0  0  0
   -0.3510    3.2840    1.9420 H   0  0  0  0  0  0  0  0  0  0  0  0
  1  4  1  0  0  0  0
  1 10  2  0  0  0  0
  1 11  2  0  0  0  0
  1 17  1  0  0  0  0
  2  3  1  0  0  0  0
  2  4  2  0  0  0  0
  2 19  1  0  0  0  0
  3  5  1  0  0  0  0
  3 13  2  0  0  0  0
  4 20  1  0  0  0  0
  5 12  1  0  0  0  0
  5 23  1  0  0  0  0
  6  8  1  0  0  0  0
  6 14  2  0  0  0  0
  6 15  1  0  0  0  0
  7  8  1  0  0  0  0
  7  9  1  0  0  0  0
  8 16  2  0  0  0  0
  9 15  2  0  0  0  0
  9 24  1  0  0  0  0
 12 14  1  0  0  0  0
 12 18  2  0  0  0  0
 14 25  1  0  0  0  0
 15 26  1  0  0  0  0
 16 18  1  0  0  0  0
 16 27  1  0  0  0  0
 17 28  1  0  0  0  0
 17 29  1  0  0  0  0
 17 30  1  0  0  0  0
 18 31  1  0  0  0  0
 19 21  2  0  0  0  0
 19 32  1  0  0  0  0
 20 22  2  0  0  0  0
 20 33  1  0  0  0  0
 21 22  1  0  0  0  0
 21 34  1  0  0  0  0
 22 35  1  0  0  0  0
M  END
>  <$CLUSTER>
468

>  <INDEX>
307739

$$$$
Life Chemicals F2560-0145
  MOE2020           3D

 55 58  0  0  0  0  0  0  0  0999 V2000
    1.8310   -0.0200    1.4560 N   0  0  0  0  0  0  0  0  0  0  0  0
    1.5290   -1.0130    2.3310 C   0  0  0  0  0  0  0  0  0  0  0  0
    1.3520    0.0230    0.1660 N   0  0  0  0  0  0  0  0  0  0  0  0
   -0.0250   -0.2210    0.0470 C   0  0  0  0  0  0  0  0  0  0  0  0
   -0.6310   -1.0950    0.8840 C   0  0  0  0  0  0  0  0  0  0  0  0
    2.5660    0.9060    2.1550 C   0  0  0  0  0  0  0  0  0  0  0  0
    0.2310   -2.1050    2.0270 S   0  0  0  0  0  0  0  0  0  0  0  0
    2.8700    0.3660    3.3260 N   0  0  0  0  0  0  0  0  0  0  0  0
    2.2090   -0.8460    3.4390 N   0  0  0  0  0  0  0  0  0  0  0  0
    2.2080    0.2350   -0.9240 C   0  0  0  0  0  0  0  0  0  0  0  0
   -2.0860   -1.3800    0.8240 C   0  0  0  0  0  0  0  0  0  0  0  0
   -0.7800    0.4570   -1.0270 C   0  0  0  0  0  0  0  0  0  0  0  0
    2.8560    2.3090    1.7220 C   0  0  0  0  0  0  0  0  0  0  0  0
    1.8360    0.4930   -2.0730 O   0  0  0  0  0  0  0  0  0  0  0  0
   -2.4980   -2.4750    0.4490 O   0  0  0  0  0  0  0  0  0  0  0  0
   -1.3040   -0.2600   -2.1120 C   0  0  0  0  0  0  0  0  0  0  0  0
   -0.9770    1.8450   -0.9650 C   0  0  0  0  0  0  0  0  0  0  0  0
   -2.2100    1.7790   -3.0420 C   0  0  0  0  0  0  0  0  0  0  0  0
   -2.0170    0.4000   -3.1140 C   0  0  0  0  0  0  0  0  0  0  0  0
   -1.6900    2.5010   -1.9690 C   0  0  0  0  0  0  0  0  0  0  0  0
   -2.9040    2.3290   -4.0390 F   0  0  0  0  0  0  0  0  0  0  0  0
    3.6950    0.0520   -0.6910 C   0  0  0  0  0  0  0  0  0  0  0  0
   -3.0330   -0.2940    1.2660 C   0  0  0  0  0  0  0  0  0  0  0  0
    4.3000    2.6940    2.0490 C   0  0  0  0  0  0  0  0  0  0  0  0
    1.8820    3.2750    2.4000 C   0  0  0  0  0  0  0  0  0  0  0  0
    4.5760    0.2540   -1.8420 C   0  0  0  0  0  0  0  0  0  0  0  0
   -4.4930   -0.6730    1.1760 C   0  0  0  0  0  0  0  0  0  0  0  0
    4.6060    4.1490    1.6800 C   0  0  0  0  0  0  0  0  0  0  0  0
    2.1780    4.7410    2.0330 C   0  0  0  0  0  0  0  0  0  0  0  0
    3.6250    5.1110    2.3430 C   0  0  0  0  0  0  0  0  0  0  0  0
    2.7260    2.3710    0.6420 H   0  0  0  0  0  0  0  0  0  0  0  0
   -1.1550   -1.3280   -2.1730 H   0  0  0  0  0  0  0  0  0  0  0  0
   -0.5750    2.4080   -0.1360 H   0  0  0  0  0  0  0  0  0  0  0  0
   -2.4200   -0.1580   -3.9460 H   0  0  0  0  0  0  0  0  0  0  0  0
   -1.8390    3.5690   -1.9150 H   0  0  0  0  0  0  0  0  0  0  0  0
    3.8490   -0.9660   -0.3330 H   0  0  0  0  0  0  0  0  0  0  0  0
    3.9960    0.7590    0.0820 H   0  0  0  0  0  0  0  0  0  0  0  0
   -2.8670    0.5810    0.6380 H   0  0  0  0  0  0  0  0  0  0  0  0
   -2.8080   -0.0450    2.3030 H   0  0  0  0  0  0  0  0  0  0  0  0
    4.9720    2.0410    1.4920 H   0  0  0  0  0  0  0  0  0  0  0  0
    4.4660    2.5600    3.1180 H   0  0  0  0  0  0  0  0  0  0  0  0
    1.9650    3.1590    3.4810 H   0  0  0  0  0  0  0  0  0  0  0  0
    0.8670    3.0310    2.0850 H   0  0  0  0  0  0  0  0  0  0  0  0
    4.3010   -0.4400   -2.6360 H   0  0  0  0  0  0  0  0  0  0  0  0
    5.6090    0.0740   -1.5450 H   0  0  0  0  0  0  0  0  0  0  0  0
    4.4740    1.2780   -2.2020 H   0  0  0  0  0  0  0  0  0  0  0  0
   -4.7400   -0.9270    0.1450 H   0  0  0  0  0  0  0  0  0  0  0  0
   -5.1070    0.1670    1.5000 H   0  0  0  0  0  0  0  0  0  0  0  0
   -4.6850   -1.5330    1.8180 H   0  0  0  0  0  0  0  0  0  0  0  0
    4.5370    4.2620    0.5980 H   0  0  0  0  0  0  0  0  0  0  0  0
    5.6170    4.3920    2.0070 H   0  0  0  0  0  0  0  0  0  0  0  0
    1.5150    5.3910    2.6050 H   0  0  0  0  0  0  0  0  0  0  0  0
    1.9960    4.8840    0.9680 H   0  0  0  0  0  0  0  0  0  0  0  0
    3.8180    6.1200    1.9780 H   0  0  0  0  0  0  0  0  0  0  0  0
    3.7740    5.0800    3.4220 H   0  0  0  0  0  0  0  0  0  0  0  0
  1  2  1  0  0  0  0
  1  3  1  0  0  0  0
  1  6  1  0  0  0  0
  2  7  1  0  0  0  0
  2  9  2  0  0  0  0
  3  4  1  0  0  0  0
  3 10  1  0  0  0  0
  4  5  2  0  0  0  0
  4 12  1  0  0  0  0
  5  7  1  0  0  0  0
  5 11  1  0  0  0  0
  6  8  2  0  0  0  0
  6 13  1  0  0  0  0
  8  9  1  0  0  0  0
 10 14  2  0  0  0  0
 10 22  1  0  0  0  0
 11 15  2  0  0  0  0
 11 23  1  0  0  0  0
 12 16  2  0  0  0  0
 12 17  1  0  0  0  0
 13 24  1  0  0  0  0
 13 25  1  0  0  0  0
 13 31  1  0  0  0  0
 16 19  1  0  0  0  0
 16 32  1  0  0  0  0
 17 20  2  0  0  0  0
 17 33  1  0  0  0  0
 18 19  2  0  0  0  0
 18 20  1  0  0  0  0
 18 21  1  0  0  0  0
 19 34  1  0  0  0  0
 20 35  1  0  0  0  0
 22 26  1  0  0  0  0
 22 36  1  0  0  0  0
 22 37  1  0  0  0  0
 23 27  1  0  0  0  0
 23 38  1  0  0  0  0
 23 39  1  0  0  0  0
 24 28  1  0  0  0  0
 24 40  1  0  0  0  0
 24 41  1  0  0  0  0
 25 29  1  0  0  0  0
 25 42  1  0  0  0  0
 25 43  1  0  0  0  0
 26 44  1  0  0  0  0
 26 45  1  0  0  0  0
 26 46  1  0  0  0  0
 27 47  1  0  0  0  0
 27 48  1  0  0  0  0
 27 49  1  0  0  0  0
 28 30  1  0  0  0  0
 28 50  1  0  0  0  0
 28 51  1  0  0  0  0
 29 30  1  0  0  0  0
 29 52  1  0  0  0  0
 29 53  1  0  0  0  0
 30 54  1  0  0  0  0
 30 55  1  0  0  0  0
M  END
>  <$CLUSTER>
469

>  <INDEX>
307881

$$$$
Life Chemicals F2584-0097
  MOE2020           3D

 46 49  0  0  0  0  0  0  0  0999 V2000
   -0.4840    4.3090   -1.7520 S   0  0  0  0  0  0  0  0  0  0  0  0
    0.1200   -1.0510    0.5970 N   0  0  0  0  0  0  0  0  0  0  0  0
   -0.4590   -0.9560    1.8630 C   0  0  0  0  0  0  0  0  0  0  0  0
    0.0320    0.1570   -0.0850 C   0  0  0  0  0  0  0  0  0  0  0  0
   -1.9820    4.2610   -2.4970 N   0  0  0  0  0  0  0  0  0  0  0  0
   -0.6050    1.1080    0.6950 C   0  0  0  0  0  0  0  0  0  0  0  0
   -0.3050    2.6620   -1.0900 C   0  0  0  0  0  0  0  0  0  0  0  0
   -3.1900    4.1640   -1.6890 C   0  0  0  0  0  0  0  0  0  0  0  0
    0.5040    0.3840   -1.3640 C   0  0  0  0  0  0  0  0  0  0  0  0
   -0.9820    0.4890    2.0050 C   0  0  0  0  0  0  0  0  0  0  0  0
   -0.7850    2.3830    0.2000 C   0  0  0  0  0  0  0  0  0  0  0  0
    0.3390    1.6740   -1.8660 C   0  0  0  0  0  0  0  0  0  0  0  0
    0.5150    4.5150   -2.7850 O   0  0  0  0  0  0  0  0  0  0  0  0
   -0.5790    5.2370   -0.6370 O   0  0  0  0  0  0  0  0  0  0  0  0
   -3.9250    2.9690   -1.5990 C   0  0  0  0  0  0  0  0  0  0  0  0
   -0.5490   -1.8220    2.7190 O   0  0  0  0  0  0  0  0  0  0  0  0
   -3.5800    5.2930   -0.9610 C   0  0  0  0  0  0  0  0  0  0  0  0
   -5.0520    2.9270   -0.7700 C   0  0  0  0  0  0  0  0  0  0  0  0
    0.7800   -2.1860   -0.0250 C   0  0  0  0  0  0  0  0  0  0  0  0
   -4.7030    5.2370   -0.1390 C   0  0  0  0  0  0  0  0  0  0  0  0
   -5.4360    4.0570   -0.0440 C   0  0  0  0  0  0  0  0  0  0  0  0
    1.1880   -0.7360   -2.0920 C   0  0  0  0  0  0  0  0  0  0  0  0
   -3.4620    1.9200   -2.3510 O   0  0  0  0  0  0  0  0  0  0  0  0
    0.7230   -2.1060   -1.5580 C   0  0  0  0  0  0  0  0  0  0  0  0
   -5.1200    6.4440    0.6370 C   0  0  0  0  0  0  0  0  0  0  0  0
   -4.1660    0.6880   -2.2510 C   0  0  0  0  0  0  0  0  0  0  0  0
   -2.0480    4.2990   -3.5040 H   0  0  0  0  0  0  0  0  0  0  0  0
   -0.4970    1.0020    2.8360 H   0  0  0  0  0  0  0  0  0  0  0  0
   -2.0620    0.5030    2.1500 H   0  0  0  0  0  0  0  0  0  0  0  0
   -1.2800    3.1430    0.7860 H   0  0  0  0  0  0  0  0  0  0  0  0
    0.7050    1.9180   -2.8520 H   0  0  0  0  0  0  0  0  0  0  0  0
   -3.0110    6.2080   -1.0360 H   0  0  0  0  0  0  0  0  0  0  0  0
   -5.6280    2.0170   -0.6910 H   0  0  0  0  0  0  0  0  0  0  0  0
    0.2870   -3.1030    0.2990 H   0  0  0  0  0  0  0  0  0  0  0  0
    1.8240   -2.2040    0.2890 H   0  0  0  0  0  0  0  0  0  0  0  0
   -6.3060    4.0150    0.5940 H   0  0  0  0  0  0  0  0  0  0  0  0
    2.2650   -0.6460   -1.9530 H   0  0  0  0  0  0  0  0  0  0  0  0
    0.9520   -0.6680   -3.1540 H   0  0  0  0  0  0  0  0  0  0  0  0
   -0.3040   -2.2770   -1.8800 H   0  0  0  0  0  0  0  0  0  0  0  0
    1.3670   -2.8810   -1.9730 H   0  0  0  0  0  0  0  0  0  0  0  0
   -4.4290    7.2630    0.4350 H   0  0  0  0  0  0  0  0  0  0  0  0
   -5.1080    6.2130    1.7020 H   0  0  0  0  0  0  0  0  0  0  0  0
   -6.1270    6.7370    0.3400 H   0  0  0  0  0  0  0  0  0  0  0  0
   -3.6940   -0.0530   -2.8960 H   0  0  0  0  0  0  0  0  0  0  0  0
   -5.2010    0.8340   -2.5620 H   0  0  0  0  0  0  0  0  0  0  0  0
   -4.1420    0.3390   -1.2190 H   0  0  0  0  0  0  0  0  0  0  0  0
  1  5  1  0  0  0  0
  1  7  1  0  0  0  0
  1 13  2  0  0  0  0
  1 14  2  0  0  0  0
  2  3  1  0  0  0  0
  2  4  1  0  0  0  0
  2 19  1  0  0  0  0
  3 10  1  0  0  0  0
  3 16  2  0  0  0  0
  4  6  1  0  0  0  0
  4  9  2  0  0  0  0
  5  8  1  0  0  0  0
  5 27  1  0  0  0  0
  6 10  1  0  0  0  0
  6 11  2  0  0  0  0
  7 11  1  0  0  0  0
  7 12  2  0  0  0  0
  8 15  2  0  0  0  0
  8 17  1  0  0  0  0
  9 12  1  0  0  0  0
  9 22  1  0  0  0  0
 10 28  1  0  0  0  0
 10 29  1  0  0  0  0
 11 30  1  0  0  0  0
 12 31  1  0  0  0  0
 15 18  1  0  0  0  0
 15 23  1  0  0  0  0
 17 20  2  0  0  0  0
 17 32  1  0  0  0  0
 18 21  2  0  0  0  0
 18 33  1  0  0  0  0
 19 24  1  0  0  0  0
 19 34  1  0  0  0  0
 19 35  1  0  0  0  0
 20 21  1  0  0  0  0
 20 25  1  0  0  0  0
 21 36  1  0  0  0  0
 22 24  1  0  0  0  0
 22 37  1  0  0  0  0
 22 38  1  0  0  0  0
 23 26  1  0  0  0  0
 24 39  1  0  0  0  0
 24 40  1  0  0  0  0
 25 41  1  0  0  0  0
 25 42  1  0  0  0  0
 25 43  1  0  0  0  0
 26 44  1  0  0  0  0
 26 45  1  0  0  0  0
 26 46  1  0  0  0  0
M  END
>  <$CLUSTER>
470

>  <INDEX>
309165

$$$$
InterBioScreen STOCK1S-38095
  MOE2020           3D

 44 46  0  0  0  0  0  0  0  0999 V2000
   -1.9100    1.1150    0.3320 C   0  0  0  0  0  0  0  0  0  0  0  0
   -0.3850   -0.6520   -0.1990 N   0  0  0  0  0  0  0  0  0  0  0  0
   -1.6590   -0.2050   -0.0690 C   0  0  0  0  0  0  0  0  0  0  0  0
    0.6580    0.1800    0.0490 C   0  0  0  0  0  0  0  0  0  0  0  0
   -0.8280    1.9840    0.6020 C   0  0  0  0  0  0  0  0  0  0  0  0
    0.4900    1.5170    0.4290 C   0  0  0  0  0  0  0  0  0  0  0  0
   -3.2630    1.5890    0.4570 C   0  0  0  0  0  0  0  0  0  0  0  0
   -4.3560    1.9670    0.5560 N   0  0  0  0  0  0  0  0  0  0  0  0
    1.9670   -0.4630   -0.1240 C   0  0  0  0  0  0  0  0  0  0  0  0
   -2.7130   -1.0750   -0.3390 N   0  0  0  0  0  0  0  0  0  0  0  0
   -1.0890    3.4230    1.0090 C   0  0  0  0  0  0  0  0  0  0  0  0
    1.6800    2.4150    0.6810 C   0  0  0  0  0  0  0  0  0  0  0  0
   -3.7780   -3.1640   -0.9860 C   0  0  0  0  0  0  0  0  0  0  0  0
   -4.8140   -5.2310   -1.6160 O   0  0  0  0  0  0  0  0  0  0  0  0
   -2.4610   -2.4400   -0.7580 C   0  0  0  0  0  0  0  0  0  0  0  0
   -3.5490   -4.6140   -1.4200 C   0  0  0  0  0  0  0  0  0  0  0  0
    2.7980   -0.7260    0.9770 C   0  0  0  0  0  0  0  0  0  0  0  0
    2.4060   -0.8520   -1.4000 C   0  0  0  0  0  0  0  0  0  0  0  0
    1.3390    3.9010    0.6900 C   0  0  0  0  0  0  0  0  0  0  0  0
    0.1290    4.1470    1.5740 C   0  0  0  0  0  0  0  0  0  0  0  0
    4.0380   -1.3470    0.8050 C   0  0  0  0  0  0  0  0  0  0  0  0
    3.6460   -1.4730   -1.5710 C   0  0  0  0  0  0  0  0  0  0  0  0
    4.4620   -1.7180   -0.4690 C   0  0  0  0  0  0  0  0  0  0  0  0
   -3.6650   -0.7510   -0.2420 H   0  0  0  0  0  0  0  0  0  0  0  0
   -1.8710    3.4260    1.7690 H   0  0  0  0  0  0  0  0  0  0  0  0
   -1.4330    3.9690    0.1310 H   0  0  0  0  0  0  0  0  0  0  0  0
    2.4170    2.2360   -0.1020 H   0  0  0  0  0  0  0  0  0  0  0  0
    2.1080    2.1550    1.6490 H   0  0  0  0  0  0  0  0  0  0  0  0
   -4.3380   -2.6450   -1.7640 H   0  0  0  0  0  0  0  0  0  0  0  0
   -4.3520   -3.1570   -0.0590 H   0  0  0  0  0  0  0  0  0  0  0  0
   -4.6560   -6.1380   -1.8870 H   0  0  0  0  0  0  0  0  0  0  0  0
   -1.8940   -2.9570    0.0160 H   0  0  0  0  0  0  0  0  0  0  0  0
   -1.8870   -2.4330   -1.6850 H   0  0  0  0  0  0  0  0  0  0  0  0
   -2.9960   -5.1460   -0.6460 H   0  0  0  0  0  0  0  0  0  0  0  0
   -2.9820   -4.6340   -2.3510 H   0  0  0  0  0  0  0  0  0  0  0  0
    2.4750   -0.4450    1.9680 H   0  0  0  0  0  0  0  0  0  0  0  0
    1.7780   -0.6690   -2.2590 H   0  0  0  0  0  0  0  0  0  0  0  0
    1.1170    4.2270   -0.3260 H   0  0  0  0  0  0  0  0  0  0  0  0
    2.1890    4.4650    1.0750 H   0  0  0  0  0  0  0  0  0  0  0  0
    0.3350    3.7760    2.5780 H   0  0  0  0  0  0  0  0  0  0  0  0
   -0.0750    5.2170    1.6160 H   0  0  0  0  0  0  0  0  0  0  0  0
    4.6680   -1.5390    1.6610 H   0  0  0  0  0  0  0  0  0  0  0  0
    3.9720   -1.7630   -2.5590 H   0  0  0  0  0  0  0  0  0  0  0  0
    5.4220   -2.1950   -0.6020 H   0  0  0  0  0  0  0  0  0  0  0  0
  1  3  2  0  0  0  0
  1  5  1  0  0  0  0
  1  7  1  0  0  0  0
  2  3  1  0  0  0  0
  2  4  2  0  0  0  0
  3 10  1  0  0  0  0
  4  6  1  0  0  0  0
  4  9  1  0  0  0  0
  5  6  2  0  0  0  0
  5 11  1  0  0  0  0
  6 12  1  0  0  0  0
  7  8  3  0  0  0  0
  9 17  2  0  0  0  0
  9 18  1  0  0  0  0
 10 15  1  0  0  0  0
 10 24  1  0  0  0  0
 11 20  1  0  0  0  0
 11 25  1  0  0  0  0
 11 26  1  0  0  0  0
 12 19  1  0  0  0  0
 12 27  1  0  0  0  0
 12 28  1  0  0  0  0
 13 15  1  0  0  0  0
 13 16  1  0  0  0  0
 13 29  1  0  0  0  0
 13 30  1  0  0  0  0
 14 16  1  0  0  0  0
 14 31  1  0  0  0  0
 15 32  1  0  0  0  0
 15 33  1  0  0  0  0
 16 34  1  0  0  0  0
 16 35  1  0  0  0  0
 17 21  1  0  0  0  0
 17 36  1  0  0  0  0
 18 22  2  0  0  0  0
 18 37  1  0  0  0  0
 19 20  1  0  0  0  0
 19 38  1  0  0  0  0
 19 39  1  0  0  0  0
 20 40  1  0  0  0  0
 20 41  1  0  0  0  0
 21 23  2  0  0  0  0
 21 42  1  0  0  0  0
 22 23  1  0  0  0  0
 22 43  1  0  0  0  0
 23 44  1  0  0  0  0
M  END
>  <$CLUSTER>
471

>  <INDEX>
331060

$$$$
Labotest LT00012178
  MOE2020           3D

 29 31  0  0  0  0  0  0  0  0999 V2000
    1.0410    0.8130   -0.1410 N   0  0  0  0  0  0  0  0  0  0  0  0
    0.7680   -0.1920    0.6330 C   0  0  0  0  0  0  0  0  0  0  0  0
    1.6500   -0.7600    1.6830 C   0  0  0  0  0  0  0  0  0  0  0  0
   -1.1310    0.2160   -0.8690 C   0  0  0  0  0  0  0  0  0  0  0  0
   -0.8050   -0.9170    0.3770 S   0  0  0  0  0  0  0  0  0  0  0  0
    0.0280    1.1240   -1.0290 C   0  0  0  0  0  0  0  0  0  0  0  0
   -2.2320    0.3210   -1.6180 C   0  0  0  0  0  0  0  0  0  0  0  0
    2.8470   -0.1780    1.8480 C   0  0  0  0  0  0  0  0  0  0  0  0
    1.2280   -1.9280    2.5190 C   0  0  0  0  0  0  0  0  0  0  0  0
   -3.4600   -0.5310   -1.5520 C   0  0  0  0  0  0  0  0  0  0  0  0
    0.8960   -2.7770    3.1140 N   0  0  0  0  0  0  0  0  0  0  0  0
    3.5530    0.9660    1.2030 C   0  0  0  0  0  0  0  0  0  0  0  0
   -3.4950   -1.5520   -0.6220 O   0  0  0  0  0  0  0  0  0  0  0  0
    2.8010    1.5830    0.1850 O   0  0  0  0  0  0  0  0  0  0  0  0
    0.0670    2.0320   -1.8500 O   0  0  0  0  0  0  0  0  0  0  0  0
   -4.5720   -0.4800   -2.2570 C   0  0  0  0  0  0  0  0  0  0  0  0
    4.6930    1.5120    1.3680 C   0  0  0  0  0  0  0  0  0  0  0  0
    3.6130    2.5740   -0.2560 C   0  0  0  0  0  0  0  0  0  0  0  0
   -4.7040   -2.1410   -0.7880 C   0  0  0  0  0  0  0  0  0  0  0  0
   -5.4080   -1.5170   -1.7850 C   0  0  0  0  0  0  0  0  0  0  0  0
    4.7930    2.5740    0.4410 C   0  0  0  0  0  0  0  0  0  0  0  0
   -2.2360    1.1110   -2.3550 H   0  0  0  0  0  0  0  0  0  0  0  0
    3.4330   -0.6450    2.6260 H   0  0  0  0  0  0  0  0  0  0  0  0
   -4.8010    0.2210   -3.0460 H   0  0  0  0  0  0  0  0  0  0  0  0
    5.4450    1.2170    2.0850 H   0  0  0  0  0  0  0  0  0  0  0  0
    3.3650    3.2670   -1.0460 H   0  0  0  0  0  0  0  0  0  0  0  0
   -5.0630   -2.9840   -0.2150 H   0  0  0  0  0  0  0  0  0  0  0  0
   -6.3980   -1.7670   -2.1370 H   0  0  0  0  0  0  0  0  0  0  0  0
    5.6270    3.2470    0.3090 H   0  0  0  0  0  0  0  0  0  0  0  0
  1  2  2  0  0  0  0
  1  6  1  0  0  0  0
  2  3  1  0  0  0  0
  2  5  1  0  0  0  0
  3  8  2  0  0  0  0
  3  9  1  0  0  0  0
  4  5  1  0  0  0  0
  4  6  1  0  0  0  0
  4  7  2  0  0  0  0
  6 15  2  0  0  0  0
  7 10  1  0  0  0  0
  7 22  1  0  0  0  0
  8 12  1  0  0  0  0
  8 23  1  0  0  0  0
  9 11  3  0  0  0  0
 10 13  1  0  0  0  0
 10 16  2  0  0  0  0
 12 14  1  0  0  0  0
 12 17  2  0  0  0  0
 13 19  1  0  0  0  0
 14 18  1  0  0  0  0
 16 20  1  0  0  0  0
 16 24  1  0  0  0  0
 17 21  1  0  0  0  0
 17 25  1  0  0  0  0
 18 21  2  0  0  0  0
 18 26  1  0  0  0  0
 19 20  2  0  0  0  0
 19 27  1  0  0  0  0
 20 28  1  0  0  0  0
 21 29  1  0  0  0  0
M  END
>  <$CLUSTER>
472

>  <INDEX>
310790

$$$$
Chem T&I UZI/1102918
  MOE2020           3D

 44 46  0  0  0  0  0  0  0  0999 V2000
    1.5830    1.5040   -0.1400 S   0  0  0  0  0  0  0  0  0  0  0  0
   -3.7520   -2.9070   -0.8560 S   0  0  0  0  0  0  0  0  0  0  0  0
    0.2990    2.6940    0.1780 C   0  0  0  0  0  0  0  0  0  0  0  0
    1.0620    0.2120    0.8600 N   0  0  0  0  0  0  0  0  0  0  0  0
   -2.3400   -1.9790   -0.3670 C   0  0  0  0  0  0  0  0  0  0  0  0
    1.5160    1.1400   -1.5410 O   0  0  0  0  0  0  0  0  0  0  0  0
    2.8060    2.0420    0.4260 O   0  0  0  0  0  0  0  0  0  0  0  0
    0.4380    3.5990    1.2230 C   0  0  0  0  0  0  0  0  0  0  0  0
   -3.2880   -4.0450   -1.6240 O   0  0  0  0  0  0  0  0  0  0  0  0
   -4.5860   -3.0910    0.3150 O   0  0  0  0  0  0  0  0  0  0  0  0
   -4.5040   -1.7960   -1.9060 N   0  0  0  0  0  0  0  0  0  0  0  0
   -0.5670    4.5410    1.4450 C   0  0  0  0  0  0  0  0  0  0  0  0
   -0.8200    2.7120   -0.6550 C   0  0  0  0  0  0  0  0  0  0  0  0
   -0.0820   -0.5500    0.4390 C   0  0  0  0  0  0  0  0  0  0  0  0
   -1.6940    4.5700    0.6230 C   0  0  0  0  0  0  0  0  0  0  0  0
   -2.3980   -1.1660    0.7640 C   0  0  0  0  0  0  0  0  0  0  0  0
   -1.1540   -2.0800   -1.0940 C   0  0  0  0  0  0  0  0  0  0  0  0
   -1.8190    3.6570   -0.4250 C   0  0  0  0  0  0  0  0  0  0  0  0
   -1.2700   -0.4500    1.1690 C   0  0  0  0  0  0  0  0  0  0  0  0
   -0.0240   -1.3660   -0.6940 C   0  0  0  0  0  0  0  0  0  0  0  0
   -0.4560    5.4780    2.5070 C   0  0  0  0  0  0  0  0  0  0  0  0
   -5.0380   -0.5310   -1.3740 C   0  0  0  0  0  0  0  0  0  0  0  0
   -2.7090    5.5380    0.8630 C   0  0  0  0  0  0  0  0  0  0  0  0
   -6.0730    0.0210   -2.3380 C   0  0  0  0  0  0  0  0  0  0  0  0
   -1.4590    6.4220    2.7310 C   0  0  0  0  0  0  0  0  0  0  0  0
   -2.5830    6.4520    1.9110 C   0  0  0  0  0  0  0  0  0  0  0  0
    1.5450   -0.0070    1.7200 H   0  0  0  0  0  0  0  0  0  0  0  0
    1.3130    3.5740    1.8560 H   0  0  0  0  0  0  0  0  0  0  0  0
   -5.2770   -2.2800   -2.3390 H   0  0  0  0  0  0  0  0  0  0  0  0
   -0.9110    2.0040   -1.4660 H   0  0  0  0  0  0  0  0  0  0  0  0
   -3.3160   -1.0900    1.3270 H   0  0  0  0  0  0  0  0  0  0  0  0
   -1.1100   -2.7120   -1.9680 H   0  0  0  0  0  0  0  0  0  0  0  0
   -2.6920    3.6830   -1.0600 H   0  0  0  0  0  0  0  0  0  0  0  0
   -1.3150    0.1800    2.0450 H   0  0  0  0  0  0  0  0  0  0  0  0
    0.8930   -1.4440   -1.2590 H   0  0  0  0  0  0  0  0  0  0  0  0
    0.4130    5.4600    3.1470 H   0  0  0  0  0  0  0  0  0  0  0  0
   -4.2260    0.1880   -1.2600 H   0  0  0  0  0  0  0  0  0  0  0  0
   -5.5030   -0.7110   -0.4050 H   0  0  0  0  0  0  0  0  0  0  0  0
   -3.5830    5.5660    0.2300 H   0  0  0  0  0  0  0  0  0  0  0  0
   -5.6080    0.2010   -3.3070 H   0  0  0  0  0  0  0  0  0  0  0  0
   -6.4710    0.9570   -1.9470 H   0  0  0  0  0  0  0  0  0  0  0  0
   -6.8840   -0.6990   -2.4520 H   0  0  0  0  0  0  0  0  0  0  0  0
   -1.3630    7.1300    3.5410 H   0  0  0  0  0  0  0  0  0  0  0  0
   -3.3590    7.1830    2.0850 H   0  0  0  0  0  0  0  0  0  0  0  0
  1  3  1  0  0  0  0
  1  4  1  0  0  0  0
  1  6  2  0  0  0  0
  1  7  2  0  0  0  0
  2  5  1  0  0  0  0
  2  9  2  0  0  0  0
  2 10  2  0  0  0  0
  2 11  1  0  0  0  0
  3  8  2  0  0  0  0
  3 13  1  0  0  0  0
  4 14  1  0  0  0  0
  4 27  1  0  0  0  0
  5 16  2  0  0  0  0
  5 17  1  0  0  0  0
  8 12  1  0  0  0  0
  8 28  1  0  0  0  0
 11 22  1  0  0  0  0
 11 29  1  0  0  0  0
 12 15  2  0  0  0  0
 12 21  1  0  0  0  0
 13 18  2  0  0  0  0
 13 30  1  0  0  0  0
 14 19  2  0  0  0  0
 14 20  1  0  0  0  0
 15 18  1  0  0  0  0
 15 23  1  0  0  0  0
 16 19  1  0  0  0  0
 16 31  1  0  0  0  0
 17 20  2  0  0  0  0
 17 32  1  0  0  0  0
 18 33  1  0  0  0  0
 19 34  1  0  0  0  0
 20 35  1  0  0  0  0
 21 25  2  0  0  0  0
 21 36  1  0  0  0  0
 22 24  1  0  0  0  0
 22 37  1  0  0  0  0
 22 38  1  0  0  0  0
 23 26  2  0  0  0  0
 23 39  1  0  0  0  0
 24 40  1  0  0  0  0
 24 41  1  0  0  0  0
 24 42  1  0  0  0  0
 25 26  1  0  0  0  0
 25 43  1  0  0  0  0
 26 44  1  0  0  0  0
M  END
>  <$CLUSTER>
473

>  <INDEX>
647335

$$$$
Chem T&I ARAK0129872
  MOE2020           3D

 34 35  0  0  0  0  0  0  0  0999 V2000
   -0.7630    0.1030    2.5280 S   0  0  0  0  0  0  0  0  0  0  0  0
    0.2040   -0.5880    1.3670 N   0  0  0  0  0  0  0  0  0  0  0  0
    0.3610    0.3620    0.3490 N   0  0  0  0  0  0  0  0  0  0  0  0
    0.1110    0.0240   -0.9650 C   0  0  0  0  0  0  0  0  0  0  0  0
   -1.0260   -1.3260    3.6440 C   0  0  0  0  0  0  0  0  0  0  0  0
    0.3300    1.1810   -1.9070 C   0  0  0  0  0  0  0  0  0  0  0  0
    1.3490    3.2370   -2.6130 C   0  0  0  0  0  0  0  0  0  0  0  0
    1.1910    2.2190   -1.6710 C   0  0  0  0  0  0  0  0  0  0  0  0
   -2.0870    0.4500    2.0030 O   0  0  0  0  0  0  0  0  0  0  0  0
   -0.0290    1.1020    3.3180 O   0  0  0  0  0  0  0  0  0  0  0  0
    0.6430    3.1960   -3.8150 C   0  0  0  0  0  0  0  0  0  0  0  0
   -0.2440   -1.0830   -1.3710 O   0  0  0  0  0  0  0  0  0  0  0  0
   -0.3810    1.1140   -3.1400 C   0  0  0  0  0  0  0  0  0  0  0  0
   -0.2190    2.1350   -4.0790 C   0  0  0  0  0  0  0  0  0  0  0  0
   -2.1140   -2.1660    3.4250 C   0  0  0  0  0  0  0  0  0  0  0  0
   -0.1700   -1.5160    4.7260 C   0  0  0  0  0  0  0  0  0  0  0  0
    2.5050    4.6360   -2.2470 Br  0  0  0  0  0  0  0  0  0  0  0  0
   -1.4610   -3.4590    5.3620 C   0  0  0  0  0  0  0  0  0  0  0  0
   -0.3860   -2.5960    5.5820 C   0  0  0  0  0  0  0  0  0  0  0  0
   -2.3240   -3.2450    4.2860 C   0  0  0  0  0  0  0  0  0  0  0  0
   -1.7080   -4.7720    6.4180 Cl  0  0  0  0  0  0  0  0  0  0  0  0
    0.8130    4.2920   -4.8160 C   0  0  0  0  0  0  0  0  0  0  0  0
   -0.2350   -1.4210    1.0000 H   0  0  0  0  0  0  0  0  0  0  0  0
    0.6590    1.2990    0.5780 H   0  0  0  0  0  0  0  0  0  0  0  0
    1.7520    2.2500   -0.7490 H   0  0  0  0  0  0  0  0  0  0  0  0
   -1.0380    0.2820   -3.3460 H   0  0  0  0  0  0  0  0  0  0  0  0
   -0.7630    2.1010   -5.0110 H   0  0  0  0  0  0  0  0  0  0  0  0
   -2.7870   -1.9860    2.6000 H   0  0  0  0  0  0  0  0  0  0  0  0
    0.6510   -0.8360    4.9000 H   0  0  0  0  0  0  0  0  0  0  0  0
    0.2790   -2.7650    6.4160 H   0  0  0  0  0  0  0  0  0  0  0  0
   -3.1550   -3.9150    4.1190 H   0  0  0  0  0  0  0  0  0  0  0  0
    1.5220    5.0260   -4.4340 H   0  0  0  0  0  0  0  0  0  0  0  0
   -0.1480    4.7740   -4.9940 H   0  0  0  0  0  0  0  0  0  0  0  0
    1.1890    3.8760   -5.7500 H   0  0  0  0  0  0  0  0  0  0  0  0
  1  2  1  0  0  0  0
  1  5  1  0  0  0  0
  1  9  2  0  0  0  0
  1 10  2  0  0  0  0
  2  3  1  0  0  0  0
  2 23  1  0  0  0  0
  3  4  1  0  0  0  0
  3 24  1  0  0  0  0
  4  6  1  0  0  0  0
  4 12  2  0  0  0  0
  5 15  1  0  0  0  0
  5 16  2  0  0  0  0
  6  8  2  0  0  0  0
  6 13  1  0  0  0  0
  7  8  1  0  0  0  0
  7 11  2  0  0  0  0
  7 17  1  0  0  0  0
  8 25  1  0  0  0  0
 11 14  1  0  0  0  0
 11 22  1  0  0  0  0
 13 14  2  0  0  0  0
 13 26  1  0  0  0  0
 14 27  1  0  0  0  0
 15 20  2  0  0  0  0
 15 28  1  0  0  0  0
 16 19  1  0  0  0  0
 16 29  1  0  0  0  0
 18 19  2  0  0  0  0
 18 20  1  0  0  0  0
 18 21  1  0  0  0  0
 19 30  1  0  0  0  0
 20 31  1  0  0  0  0
 22 32  1  0  0  0  0
 22 33  1  0  0  0  0
 22 34  1  0  0  0  0
M  END
>  <$CLUSTER>
474

>  <INDEX>
540309

$$$$
Enamine T0504-1022
  MOE2020           3D

 49 51  0  0  0  0  0  0  0  0999 V2000
   -0.5310   -0.3940   -0.3180 C   0  0  0  0  0  0  0  0  0  0  0  0
   -1.7930    0.2300   -0.0140 N   0  3  0  0  0  0  0  0  0  0  0  0
    0.6810    0.1360    0.1760 C   0  0  0  0  0  0  0  0  0  0  0  0
    0.5840   -3.2250   -2.5520 C   0  0  0  0  0  0  0  0  0  0  0  0
   -0.5030   -3.3530   -3.3880 N   0  0  0  0  0  0  0  0  0  0  0  0
   -0.5960   -1.4840   -1.2010 C   0  0  0  0  0  0  0  0  0  0  0  0
    0.5820   -2.0810   -1.6290 C   0  0  0  0  0  0  0  0  0  0  0  0
    0.8090    1.2020    1.0980 N   0  0  0  0  0  0  0  0  0  0  0  0
    1.8460   -0.4980   -0.3040 C   0  0  0  0  0  0  0  0  0  0  0  0
   -2.0670   -3.0690   -5.8510 N   0  3  0  0  0  0  0  0  0  0  0  0
   -2.5360   -0.3530    0.7910 O   0  5  0  0  0  0  0  0  0  0  0  0
   -2.0750    1.2820   -0.6110 O   0  0  0  0  0  0  0  0  0  0  0  0
    1.8020   -1.5840   -1.1850 C   0  0  0  0  0  0  0  0  0  0  0  0
    1.5320   -4.0060   -2.5600 O   0  0  0  0  0  0  0  0  0  0  0  0
   -0.5840   -4.4670   -4.3460 C   0  0  0  0  0  0  0  0  0  0  0  0
   -1.6640   -2.4480   -3.4270 C   0  0  0  0  0  0  0  0  0  0  0  0
   -1.9420   -1.9220   -4.8630 C   0  0  0  0  0  0  0  0  0  0  0  0
   -0.8460   -3.9700   -5.7950 C   0  0  0  0  0  0  0  0  0  0  0  0
   -0.1250    1.4080    2.2070 C   0  0  0  0  0  0  0  0  0  0  0  0
    1.9350    2.1350    0.9880 C   0  0  0  0  0  0  0  0  0  0  0  0
   -2.3580   -2.5920   -7.2400 C   0  0  0  0  0  0  0  0  0  0  0  0
   -3.7620   -2.0230   -7.3710 C   0  0  0  0  0  0  0  0  0  0  0  0
    2.2040    2.2770    2.5350 C   0  0  0  0  0  0  0  0  0  0  0  0
    0.9520    1.8360    3.2760 C   0  0  0  0  0  0  0  0  0  0  0  0
   -1.5510   -1.8540   -1.5430 H   0  0  0  0  0  0  0  0  0  0  0  0
    2.8080   -0.1310    0.0210 H   0  0  0  0  0  0  0  0  0  0  0  0
   -2.8650   -3.6230   -5.5740 H   0  0  0  0  0  0  0  0  0  0  0  0
    2.7220   -2.0390   -1.5220 H   0  0  0  0  0  0  0  0  0  0  0  0
   -1.3970   -5.1290   -4.0480 H   0  0  0  0  0  0  0  0  0  0  0  0
    0.3570   -5.0170   -4.3270 H   0  0  0  0  0  0  0  0  0  0  0  0
   -1.4710   -1.5980   -2.7720 H   0  0  0  0  0  0  0  0  0  0  0  0
   -2.5430   -2.9870   -3.0730 H   0  0  0  0  0  0  0  0  0  0  0  0
   -2.8710   -1.3520   -4.8600 H   0  0  0  0  0  0  0  0  0  0  0  0
   -1.1200   -1.2750   -5.1710 H   0  0  0  0  0  0  0  0  0  0  0  0
    0.0240   -3.4130   -6.1430 H   0  0  0  0  0  0  0  0  0  0  0  0
   -1.0090   -4.8310   -6.4430 H   0  0  0  0  0  0  0  0  0  0  0  0
   -0.6510    0.4950    2.4860 H   0  0  0  0  0  0  0  0  0  0  0  0
   -0.8490    2.1970    2.0030 H   0  0  0  0  0  0  0  0  0  0  0  0
    1.6520    3.0800    0.5240 H   0  0  0  0  0  0  0  0  0  0  0  0
    2.7830    1.7070    0.4530 H   0  0  0  0  0  0  0  0  0  0  0  0
   -2.2540   -3.4310   -7.9280 H   0  0  0  0  0  0  0  0  0  0  0  0
   -1.6390   -1.8160   -7.5020 H   0  0  0  0  0  0  0  0  0  0  0  0
   -4.4910   -2.7910   -7.1110 H   0  0  0  0  0  0  0  0  0  0  0  0
   -3.9280   -1.6970   -8.3980 H   0  0  0  0  0  0  0  0  0  0  0  0
   -3.8740   -1.1730   -6.6980 H   0  0  0  0  0  0  0  0  0  0  0  0
    2.4300    3.3160    2.7770 H   0  0  0  0  0  0  0  0  0  0  0  0
    3.0450    1.6460    2.8230 H   0  0  0  0  0  0  0  0  0  0  0  0
    1.1850    0.9910    3.9250 H   0  0  0  0  0  0  0  0  0  0  0  0
    0.5690    2.6610    3.8770 H   0  0  0  0  0  0  0  0  0  0  0  0
  1  2  1  0  0  0  0
  1  3  1  0  0  0  0
  1  6  2  0  0  0  0
  2 11  1  0  0  0  0
  2 12  2  0  0  0  0
  3  8  1  0  0  0  0
  3  9  2  0  0  0  0
  4  5  1  0  0  0  0
  4  7  1  0  0  0  0
  4 14  2  0  0  0  0
  5 15  1  0  0  0  0
  5 16  1  0  0  0  0
  6  7  1  0  0  0  0
  6 25  1  0  0  0  0
  7 13  2  0  0  0  0
  8 19  1  0  0  0  0
  8 20  1  0  0  0  0
  9 13  1  0  0  0  0
  9 26  1  0  0  0  0
 10 17  1  0  0  0  0
 10 18  1  0  0  0  0
 10 21  1  0  0  0  0
 10 27  1  0  0  0  0
 13 28  1  0  0  0  0
 15 18  1  0  0  0  0
 15 29  1  0  0  0  0
 15 30  1  0  0  0  0
 16 17  1  0  0  0  0
 16 31  1  0  0  0  0
 16 32  1  0  0  0  0
 17 33  1  0  0  0  0
 17 34  1  0  0  0  0
 18 35  1  0  0  0  0
 18 36  1  0  0  0  0
 19 24  1  0  0  0  0
 19 37  1  0  0  0  0
 19 38  1  0  0  0  0
 20 23  1  0  0  0  0
 20 39  1  0  0  0  0
 20 40  1  0  0  0  0
 21 22  1  0  0  0  0
 21 41  1  0  0  0  0
 21 42  1  0  0  0  0
 22 43  1  0  0  0  0
 22 44  1  0  0  0  0
 22 45  1  0  0  0  0
 23 24  1  0  0  0  0
 23 46  1  0  0  0  0
 23 47  1  0  0  0  0
 24 48  1  0  0  0  0
 24 49  1  0  0  0  0
M  CHG  1   2   1
M  CHG  1  10   1
M  CHG  1  11  -1
M  END
>  <$CLUSTER>
475

>  <INDEX>
409586

$$$$
Labotest LT00082533
  MOE2020           3D

 44 46  0  0  0  0  0  0  0  0999 V2000
   -1.6120   -0.4090   -0.2140 N   0  0  0  0  0  0  0  0  0  0  0  0
   -1.0810    0.4970   -1.1210 C   0  0  0  0  0  0  0  0  0  0  0  0
    0.1990    0.9790   -0.8680 N   0  0  0  0  0  0  0  0  0  0  0  0
   -0.9480   -0.8850    0.9020 C   0  0  0  0  0  0  0  0  0  0  0  0
    0.4070   -0.3810    1.1340 C   0  0  0  0  0  0  0  0  0  0  0  0
    0.9600    0.5390    0.2470 C   0  0  0  0  0  0  0  0  0  0  0  0
    0.7550    1.9620   -1.8090 C   0  0  0  0  0  0  0  0  0  0  0  0
    1.5960    1.3080   -2.8990 C   0  0  0  0  0  0  0  0  0  0  0  0
   -2.9690   -0.9070   -0.4590 C   0  0  0  0  0  0  0  0  0  0  0  0
   -1.7160    0.8530   -2.1130 O   0  0  0  0  0  0  0  0  0  0  0  0
   -1.4280   -1.6990    1.6890 O   0  0  0  0  0  0  0  0  0  0  0  0
    0.9410    0.5100   -3.8490 N   0  0  0  0  0  0  0  0  0  0  0  0
    2.8140    1.4750   -2.9210 O   0  0  0  0  0  0  0  0  0  0  0  0
    1.1250   -0.8400    2.2480 C   0  0  0  0  0  0  0  0  0  0  0  0
   -2.9590   -2.1610   -1.3240 C   0  0  0  0  0  0  0  0  0  0  0  0
    2.2680    0.9890    0.4980 C   0  0  0  0  0  0  0  0  0  0  0  0
    1.7190   -0.1690   -4.8790 C   0  0  0  0  0  0  0  0  0  0  0  0
   -0.5000    0.2760   -3.8830 C   0  0  0  0  0  0  0  0  0  0  0  0
   -3.0730   -3.4280   -0.7380 C   0  0  0  0  0  0  0  0  0  0  0  0
   -2.8200   -2.0580   -2.7150 C   0  0  0  0  0  0  0  0  0  0  0  0
    2.4160   -0.3790    2.4830 C   0  0  0  0  0  0  0  0  0  0  0  0
    2.9870    0.5350    1.6060 C   0  0  0  0  0  0  0  0  0  0  0  0
   -2.8190   -3.2070   -3.5100 C   0  0  0  0  0  0  0  0  0  0  0  0
   -3.0700   -4.5760   -1.5350 C   0  0  0  0  0  0  0  0  0  0  0  0
   -2.9460   -4.4650   -2.9210 C   0  0  0  0  0  0  0  0  0  0  0  0
    1.3810    2.6620   -1.2560 H   0  0  0  0  0  0  0  0  0  0  0  0
   -0.0670    2.5030   -2.2780 H   0  0  0  0  0  0  0  0  0  0  0  0
   -3.5440   -0.1320   -0.9660 H   0  0  0  0  0  0  0  0  0  0  0  0
   -3.4380   -1.1400    0.4970 H   0  0  0  0  0  0  0  0  0  0  0  0
    0.6750   -1.5520    2.9240 H   0  0  0  0  0  0  0  0  0  0  0  0
    2.7240    1.6980   -0.1770 H   0  0  0  0  0  0  0  0  0  0  0  0
    2.7740    0.0760   -4.7580 H   0  0  0  0  0  0  0  0  0  0  0  0
    1.3810    0.1560   -5.8630 H   0  0  0  0  0  0  0  0  0  0  0  0
    1.5830   -1.2460   -4.7860 H   0  0  0  0  0  0  0  0  0  0  0  0
   -0.9770    0.8290   -3.0740 H   0  0  0  0  0  0  0  0  0  0  0  0
   -0.6980   -0.7890   -3.7620 H   0  0  0  0  0  0  0  0  0  0  0  0
   -0.9000    0.6130   -4.8390 H   0  0  0  0  0  0  0  0  0  0  0  0
   -3.1640   -3.5180    0.3340 H   0  0  0  0  0  0  0  0  0  0  0  0
   -2.7130   -1.0860   -3.1740 H   0  0  0  0  0  0  0  0  0  0  0  0
    2.9710   -0.7290    3.3410 H   0  0  0  0  0  0  0  0  0  0  0  0
    3.9900    0.8950    1.7820 H   0  0  0  0  0  0  0  0  0  0  0  0
   -2.7200   -3.1210   -4.5820 H   0  0  0  0  0  0  0  0  0  0  0  0
   -3.1640   -5.5500   -1.0780 H   0  0  0  0  0  0  0  0  0  0  0  0
   -2.9480   -5.3520   -3.5370 H   0  0  0  0  0  0  0  0  0  0  0  0
  1  2  1  0  0  0  0
  1  4  1  0  0  0  0
  1  9  1  0  0  0  0
  2  3  1  0  0  0  0
  2 10  2  0  0  0  0
  3  6  1  0  0  0  0
  3  7  1  0  0  0  0
  4  5  1  0  0  0  0
  4 11  2  0  0  0  0
  5  6  2  0  0  0  0
  5 14  1  0  0  0  0
  6 16  1  0  0  0  0
  7  8  1  0  0  0  0
  7 26  1  0  0  0  0
  7 27  1  0  0  0  0
  8 12  1  0  0  0  0
  8 13  2  0  0  0  0
  9 15  1  0  0  0  0
  9 28  1  0  0  0  0
  9 29  1  0  0  0  0
 12 17  1  0  0  0  0
 12 18  1  0  0  0  0
 14 21  2  0  0  0  0
 14 30  1  0  0  0  0
 15 19  1  0  0  0  0
 15 20  2  0  0  0  0
 16 22  2  0  0  0  0
 16 31  1  0  0  0  0
 17 32  1  0  0  0  0
 17 33  1  0  0  0  0
 17 34  1  0  0  0  0
 18 35  1  0  0  0  0
 18 36  1  0  0  0  0
 18 37  1  0  0  0  0
 19 24  2  0  0  0  0
 19 38  1  0  0  0  0
 20 23  1  0  0  0  0
 20 39  1  0  0  0  0
 21 22  1  0  0  0  0
 21 40  1  0  0  0  0
 22 41  1  0  0  0  0
 23 25  2  0  0  0  0
 23 42  1  0  0  0  0
 24 25  1  0  0  0  0
 24 43  1  0  0  0  0
 25 44  1  0  0  0  0
M  END
>  <$CLUSTER>
476

>  <INDEX>
312964

$$$$
Pharmeks PHAR065181
  MOE2020           3D

 44 46  0  0  0  0  0  0  0  0999 V2000
   -0.6970    0.4310    1.6590 C   0  0  0  0  0  0  0  0  0  0  0  0
    1.0060   -1.0660    0.9660 N   0  0  0  0  0  0  0  0  0  0  0  0
    0.1830   -0.0340    0.6750 C   0  0  0  0  0  0  0  0  0  0  0  0
    0.1200   -1.1780    3.2030 N   0  0  0  0  0  0  0  0  0  0  0  0
    0.9320   -1.5770    2.2080 C   0  0  0  0  0  0  0  0  0  0  0  0
   -0.7150   -0.1540    2.9260 C   0  0  0  0  0  0  0  0  0  0  0  0
   -1.6010    1.5160    1.3610 N   0  3  0  0  0  0  0  0  0  0  0  0
    0.1870    0.5440   -0.6140 N   0  0  0  0  0  0  0  0  0  0  0  0
    1.8050   -2.6870    2.5700 N   0  0  0  0  0  0  0  0  0  0  0  0
   -2.8010    1.2340    1.2480 O   0  5  0  0  0  0  0  0  0  0  0  0
   -1.1040    2.6430    1.2410 O   0  0  0  0  0  0  0  0  0  0  0  0
    4.4430   -5.2200    1.9480 C   0  0  0  0  0  0  0  0  0  0  0  0
    2.7910   -3.4140    1.8780 C   0  0  0  0  0  0  0  0  0  0  0  0
    3.4520   -4.4520    2.5640 C   0  0  0  0  0  0  0  0  0  0  0  0
    4.7950   -4.9670    0.6280 C   0  0  0  0  0  0  0  0  0  0  0  0
   -1.5600    0.2820    3.9340 N   0  0  0  0  0  0  0  0  0  0  0  0
    0.5870    0.0210   -1.8600 C   0  0  0  0  0  0  0  0  0  0  0  0
    4.1570   -3.9470   -0.0710 C   0  0  0  0  0  0  0  0  0  0  0  0
    3.1640   -3.1780    0.5490 C   0  0  0  0  0  0  0  0  0  0  0  0
    1.4250   -0.8970   -4.3930 C   0  0  0  0  0  0  0  0  0  0  0  0
    1.9310   -1.4630   -5.9170 Cl  0  0  0  0  0  0  0  0  0  0  0  0
    0.7650    0.9110   -2.9350 C   0  0  0  0  0  0  0  0  0  0  0  0
    0.8410   -1.3390   -2.0860 C   0  0  0  0  0  0  0  0  0  0  0  0
    1.1790    0.4570   -4.1900 C   0  0  0  0  0  0  0  0  0  0  0  0
    1.2540   -1.7940   -3.3430 C   0  0  0  0  0  0  0  0  0  0  0  0
    5.1160   -6.3100    2.7150 C   0  0  0  0  0  0  0  0  0  0  0  0
    5.8520   -5.7800   -0.0420 C   0  0  0  0  0  0  0  0  0  0  0  0
   -0.1550    1.4940   -0.6480 H   0  0  0  0  0  0  0  0  0  0  0  0
    1.6740   -3.0010    3.5210 H   0  0  0  0  0  0  0  0  0  0  0  0
    3.1860   -4.6590    3.5900 H   0  0  0  0  0  0  0  0  0  0  0  0
   -1.5380   -0.1640    4.8400 H   0  0  0  0  0  0  0  0  0  0  0  0
   -2.1980    1.0460    3.7630 H   0  0  0  0  0  0  0  0  0  0  0  0
    4.4290   -3.7470   -1.0970 H   0  0  0  0  0  0  0  0  0  0  0  0
    2.6780   -2.3900   -0.0070 H   0  0  0  0  0  0  0  0  0  0  0  0
    0.5780    1.9640   -2.7880 H   0  0  0  0  0  0  0  0  0  0  0  0
    0.7160   -2.0450   -1.2790 H   0  0  0  0  0  0  0  0  0  0  0  0
    1.3080    1.1570   -5.0020 H   0  0  0  0  0  0  0  0  0  0  0  0
    1.4410   -2.8460   -3.4990 H   0  0  0  0  0  0  0  0  0  0  0  0
    4.7050   -6.3510    3.7240 H   0  0  0  0  0  0  0  0  0  0  0  0
    6.1860   -6.1110    2.7660 H   0  0  0  0  0  0  0  0  0  0  0  0
    4.9470   -7.2640    2.2150 H   0  0  0  0  0  0  0  0  0  0  0  0
    6.2340   -6.5250    0.6560 H   0  0  0  0  0  0  0  0  0  0  0  0
    6.6660   -5.1280   -0.3590 H   0  0  0  0  0  0  0  0  0  0  0  0
    5.4280   -6.2810   -0.9120 H   0  0  0  0  0  0  0  0  0  0  0  0
  1  3  1  0  0  0  0
  1  6  2  0  0  0  0
  1  7  1  0  0  0  0
  2  3  2  0  0  0  0
  2  5  1  0  0  0  0
  3  8  1  0  0  0  0
  4  5  2  0  0  0  0
  4  6  1  0  0  0  0
  5  9  1  0  0  0  0
  6 16  1  0  0  0  0
  7 10  1  0  0  0  0
  7 11  2  0  0  0  0
  8 17  1  0  0  0  0
  8 28  1  0  0  0  0
  9 13  1  0  0  0  0
  9 29  1  0  0  0  0
 12 14  2  0  0  0  0
 12 15  1  0  0  0  0
 12 26  1  0  0  0  0
 13 14  1  0  0  0  0
 13 19  2  0  0  0  0
 14 30  1  0  0  0  0
 15 18  2  0  0  0  0
 15 27  1  0  0  0  0
 16 31  1  0  0  0  0
 16 32  1  0  0  0  0
 17 22  2  0  0  0  0
 17 23  1  0  0  0  0
 18 19  1  0  0  0  0
 18 33  1  0  0  0  0
 19 34  1  0  0  0  0
 20 21  1  0  0  0  0
 20 24  2  0  0  0  0
 20 25  1  0  0  0  0
 22 24  1  0  0  0  0
 22 35  1  0  0  0  0
 23 25  2  0  0  0  0
 23 36  1  0  0  0  0
 24 37  1  0  0  0  0
 25 38  1  0  0  0  0
 26 39  1  0  0  0  0
 26 40  1  0  0  0  0
 26 41  1  0  0  0  0
 27 42  1  0  0  0  0
 27 43  1  0  0  0  0
 27 44  1  0  0  0  0
M  CHG  1   7   1
M  CHG  1  10  -1
M  END
>  <$CLUSTER>
477

>  <INDEX>
600691

$$$$
Chem T&I ARAK0133996
  MOE2020           3D

 30 30  0  0  0  0  0  0  0  0999 V2000
   -1.8530   -1.0050   -0.0120 C   0  0  0  0  0  0  0  0  0  0  0  0
   -0.8500   -0.1770   -0.5590 N   0  0  0  0  0  0  0  0  0  0  0  0
   -5.2000   -2.5170   -1.2810 C   0  0  0  0  0  0  0  0  0  0  0  0
   -1.8640   -1.4530    1.1380 O   0  0  0  0  0  0  0  0  0  0  0  0
   -3.0170   -1.3460   -0.9160 C   0  0  0  0  0  0  0  0  0  0  0  0
    0.4340   -0.0230    0.1020 C   0  0  0  0  0  0  0  0  0  0  0  0
   -6.1220   -3.2710   -0.7820 O   0  0  0  0  0  0  0  0  0  0  0  0
   -4.0640   -2.2050   -0.3470 C   0  0  0  0  0  0  0  0  0  0  0  0
   -5.1670   -2.0320   -2.4450 O   0  5  0  0  0  0  0  0  0  0  0  0
   -1.0780    0.5850   -1.8060 C   0  0  0  0  0  0  0  0  0  0  0  0
    0.9260   -0.9980    0.9890 C   0  0  0  0  0  0  0  0  0  0  0  0
    1.2610    1.0890   -0.1440 C   0  0  0  0  0  0  0  0  0  0  0  0
   -1.8040    1.9010   -1.5580 C   0  0  0  0  0  0  0  0  0  0  0  0
    2.1680   -0.8550    1.6200 C   0  0  0  0  0  0  0  0  0  0  0  0
    2.5020    1.2340    0.4880 C   0  0  0  0  0  0  0  0  0  0  0  0
    2.9550    0.2630    1.3730 C   0  0  0  0  0  0  0  0  0  0  0  0
   -2.6160   -1.8520   -1.7940 H   0  0  0  0  0  0  0  0  0  0  0  0
   -3.4860   -0.4100   -1.2180 H   0  0  0  0  0  0  0  0  0  0  0  0
   -3.6040   -3.1460   -0.0460 H   0  0  0  0  0  0  0  0  0  0  0  0
   -4.4740   -1.7040    0.5300 H   0  0  0  0  0  0  0  0  0  0  0  0
   -1.6780   -0.0230   -2.4830 H   0  0  0  0  0  0  0  0  0  0  0  0
   -0.1140    0.7990   -2.2670 H   0  0  0  0  0  0  0  0  0  0  0  0
    0.3320   -1.8780    1.1880 H   0  0  0  0  0  0  0  0  0  0  0  0
    0.9300    1.8490   -0.8370 H   0  0  0  0  0  0  0  0  0  0  0  0
   -2.7710    1.7010   -1.0970 H   0  0  0  0  0  0  0  0  0  0  0  0
   -1.9530    2.4180   -2.5060 H   0  0  0  0  0  0  0  0  0  0  0  0
   -1.2070    2.5260   -0.8940 H   0  0  0  0  0  0  0  0  0  0  0  0
    2.5160   -1.6170    2.3020 H   0  0  0  0  0  0  0  0  0  0  0  0
    3.1100    2.1040    0.2870 H   0  0  0  0  0  0  0  0  0  0  0  0
    3.9100    0.3760    1.8640 H   0  0  0  0  0  0  0  0  0  0  0  0
  1  2  1  0  0  0  0
  1  4  2  0  0  0  0
  1  5  1  0  0  0  0
  2  6  1  0  0  0  0
  2 10  1  0  0  0  0
  3  7  2  0  0  0  0
  3  8  1  0  0  0  0
  3  9  1  0  0  0  0
  5  8  1  0  0  0  0
  5 17  1  0  0  0  0
  5 18  1  0  0  0  0
  6 11  2  0  0  0  0
  6 12  1  0  0  0  0
  8 19  1  0  0  0  0
  8 20  1  0  0  0  0
 10 13  1  0  0  0  0
 10 21  1  0  0  0  0
 10 22  1  0  0  0  0
 11 14  1  0  0  0  0
 11 23  1  0  0  0  0
 12 15  2  0  0  0  0
 12 24  1  0  0  0  0
 13 25  1  0  0  0  0
 13 26  1  0  0  0  0
 13 27  1  0  0  0  0
 14 16  2  0  0  0  0
 14 28  1  0  0  0  0
 15 16  1  0  0  0  0
 15 29  1  0  0  0  0
 16 30  1  0  0  0  0
M  CHG  1   9  -1
M  END
>  <$CLUSTER>
478

>  <INDEX>
541228

$$$$
Specs AE-641/00604032
  MOE2020           3D

 46 49  0  0  0  0  0  0  0  0999 V2000
   -0.8050   -0.1040   -0.4980 C   0  0  0  0  0  0  0  0  0  0  0  0
   -6.5180   -1.9720   -0.5250 C   0  0  0  0  0  0  0  0  0  0  0  0
   -0.3280   -1.2770    0.2710 C   0  0  0  0  0  0  0  0  0  0  0  0
    0.1280    0.7730   -1.2400 C   0  0  0  0  0  0  0  0  0  0  0  0
    1.6950    0.1900    1.7470 S   0  0  0  0  0  0  0  0  0  0  0  0
   -6.6830   -2.0760   -1.9080 N   0  3  0  0  0  0  0  0  0  0  0  0
   -7.5970   -2.5120    0.1790 N   0  0  0  0  0  0  0  0  0  0  0  0
    0.7100   -1.2280    1.2250 C   0  0  0  0  0  0  0  0  0  0  0  0
    0.9740    1.6270   -0.5100 C   0  0  0  0  0  0  0  0  0  0  0  0
   -2.0970    0.2930   -0.4940 C   0  0  0  0  0  0  0  0  0  0  0  0
    0.9100    1.6450    0.9920 C   0  0  0  0  0  0  0  0  0  0  0  0
   -5.4260   -1.4060    0.0960 N   0  0  0  0  0  0  0  0  0  0  0  0
   -7.9640   -2.7320   -2.1700 C   0  0  0  0  0  0  0  0  0  0  0  0
   -0.9100   -2.5270   -0.0430 C   0  0  0  0  0  0  0  0  0  0  0  0
    0.1860    0.7490   -2.6390 C   0  0  0  0  0  0  0  0  0  0  0  0
   -8.5680   -3.0220   -0.7880 C   0  0  0  0  0  0  0  0  0  0  0  0
   -3.2490   -0.2940    0.2610 C   0  0  0  0  0  0  0  0  0  0  0  0
    1.0920   -2.4290    1.8630 C   0  0  0  0  0  0  0  0  0  0  0  0
    1.8770    2.4460   -1.2010 C   0  0  0  0  0  0  0  0  0  0  0  0
   -4.3020   -0.8440   -0.6600 C   0  0  0  0  0  0  0  0  0  0  0  0
   -0.5160   -3.6970    0.6010 C   0  0  0  0  0  0  0  0  0  0  0  0
    1.0870    1.5730   -3.3130 C   0  0  0  0  0  0  0  0  0  0  0  0
    1.9310    2.4180   -2.5960 C   0  0  0  0  0  0  0  0  0  0  0  0
    0.4820   -3.6470    1.5610 C   0  0  0  0  0  0  0  0  0  0  0  0
   -6.0300   -1.7530   -2.6070 H   0  0  0  0  0  0  0  0  0  0  0  0
   -7.6900   -2.5450    1.1840 H   0  0  0  0  0  0  0  0  0  0  0  0
   -2.3290    1.1450   -1.1170 H   0  0  0  0  0  0  0  0  0  0  0  0
   -0.1360    1.6730    1.2960 H   0  0  0  0  0  0  0  0  0  0  0  0
    1.4170    2.5400    1.3520 H   0  0  0  0  0  0  0  0  0  0  0  0
   -5.3990   -1.3770    1.1050 H   0  0  0  0  0  0  0  0  0  0  0  0
   -8.6190   -2.0740   -2.7410 H   0  0  0  0  0  0  0  0  0  0  0  0
   -7.8110   -3.6600   -2.7210 H   0  0  0  0  0  0  0  0  0  0  0  0
   -1.6780   -2.5750   -0.8000 H   0  0  0  0  0  0  0  0  0  0  0  0
   -0.4670    0.0930   -3.1960 H   0  0  0  0  0  0  0  0  0  0  0  0
   -8.7130   -4.0940   -0.6530 H   0  0  0  0  0  0  0  0  0  0  0  0
   -9.5230   -2.5090   -0.6750 H   0  0  0  0  0  0  0  0  0  0  0  0
   -3.6950    0.4820    0.8820 H   0  0  0  0  0  0  0  0  0  0  0  0
   -2.8800   -1.1000    0.8960 H   0  0  0  0  0  0  0  0  0  0  0  0
    1.8770   -2.4040    2.6040 H   0  0  0  0  0  0  0  0  0  0  0  0
    2.5350    3.1030   -0.6510 H   0  0  0  0  0  0  0  0  0  0  0  0
   -3.8610   -1.6270   -1.2770 H   0  0  0  0  0  0  0  0  0  0  0  0
   -4.6690   -0.0420   -1.3000 H   0  0  0  0  0  0  0  0  0  0  0  0
   -0.9850   -4.6380    0.3540 H   0  0  0  0  0  0  0  0  0  0  0  0
    1.1300    1.5560   -4.3920 H   0  0  0  0  0  0  0  0  0  0  0  0
    2.6290    3.0530   -3.1210 H   0  0  0  0  0  0  0  0  0  0  0  0
    0.7870   -4.5470    2.0740 H   0  0  0  0  0  0  0  0  0  0  0  0
  1  3  1  0  0  0  0
  1  4  1  0  0  0  0
  1 10  2  0  0  0  0
  2  6  2  0  0  0  0
  2  7  1  0  0  0  0
  2 12  1  0  0  0  0
  3  8  1  0  0  0  0
  3 14  2  0  0  0  0
  4  9  1  0  0  0  0
  4 15  2  0  0  0  0
  5  8  1  0  0  0  0
  5 11  1  0  0  0  0
  6 13  1  0  0  0  0
  6 25  1  0  0  0  0
  7 16  1  0  0  0  0
  7 26  1  0  0  0  0
  8 18  2  0  0  0  0
  9 11  1  0  0  0  0
  9 19  2  0  0  0  0
 10 17  1  0  0  0  0
 10 27  1  0  0  0  0
 11 28  1  0  0  0  0
 11 29  1  0  0  0  0
 12 20  1  0  0  0  0
 12 30  1  0  0  0  0
 13 16  1  0  0  0  0
 13 31  1  0  0  0  0
 13 32  1  0  0  0  0
 14 21  1  0  0  0  0
 14 33  1  0  0  0  0
 15 22  1  0  0  0  0
 15 34  1  0  0  0  0
 16 35  1  0  0  0  0
 16 36  1  0  0  0  0
 17 20  1  0  0  0  0
 17 37  1  0  0  0  0
 17 38  1  0  0  0  0
 18 24  1  0  0  0  0
 18 39  1  0  0  0  0
 19 23  1  0  0  0  0
 19 40  1  0  0  0  0
 20 41  1  0  0  0  0
 20 42  1  0  0  0  0
 21 24  2  0  0  0  0
 21 43  1  0  0  0  0
 22 23  2  0  0  0  0
 22 44  1  0  0  0  0
 23 45  1  0  0  0  0
 24 46  1  0  0  0  0
M  CHG  1   6   1
M  END
>  <$CLUSTER>
479

>  <INDEX>
489989

$$$$
Chem T&I NSB 0069788
  MOE2020           3D

 31 31  0  0  0  0  0  0  0  0999 V2000
    1.2090   -0.1600   -0.4940 C   0  0  0  0  0  0  0  0  0  0  0  0
    0.1140   -0.4820    0.2910 N   0  0  0  0  0  0  0  0  0  0  0  0
    1.2420    0.7190   -1.3510 O   0  0  0  0  0  0  0  0  0  0  0  0
   -1.1700    0.2000    0.1790 C   0  0  0  0  0  0  0  0  0  0  0  0
    2.4110   -1.0050   -0.1720 C   0  0  0  0  0  0  0  0  0  0  0  0
   -2.3070   -0.7550    0.5250 C   0  0  0  0  0  0  0  0  0  0  0  0
   -1.1950    1.4300    1.0810 C   0  0  0  0  0  0  0  0  0  0  0  0
    3.6310   -0.6770   -1.0110 C   0  0  0  0  0  0  0  0  0  0  0  0
    4.8260   -1.5360   -0.6720 C   0  0  0  0  0  0  0  0  0  0  0  0
   -2.5500    2.1350    1.0430 C   0  0  0  0  0  0  0  0  0  0  0  0
   -3.6660   -0.0600    0.4850 C   0  0  0  0  0  0  0  0  0  0  0  0
   -3.6880    1.1760    1.3780 C   0  0  0  0  0  0  0  0  0  0  0  0
    0.2090   -1.2220    0.9710 H   0  0  0  0  0  0  0  0  0  0  0  0
   -1.3060    0.5310   -0.8510 H   0  0  0  0  0  0  0  0  0  0  0  0
    2.1510   -2.0500   -0.3380 H   0  0  0  0  0  0  0  0  0  0  0  0
    2.6650   -0.8560    0.8770 H   0  0  0  0  0  0  0  0  0  0  0  0
   -2.1430   -1.1500    1.5270 H   0  0  0  0  0  0  0  0  0  0  0  0
   -2.3090   -1.5750   -0.1930 H   0  0  0  0  0  0  0  0  0  0  0  0
   -0.4250    2.1270    0.7490 H   0  0  0  0  0  0  0  0  0  0  0  0
   -0.9870    1.1210    2.1050 H   0  0  0  0  0  0  0  0  0  0  0  0
    3.8960    0.3670   -0.8460 H   0  0  0  0  0  0  0  0  0  0  0  0
    3.3810   -0.8270   -2.0610 H   0  0  0  0  0  0  0  0  0  0  0  0
    5.0880   -1.3960    0.3770 H   0  0  0  0  0  0  0  0  0  0  0  0
    5.6700   -1.2480   -1.2990 H   0  0  0  0  0  0  0  0  0  0  0  0
    4.5820   -2.5840   -0.8490 H   0  0  0  0  0  0  0  0  0  0  0  0
   -2.7110    2.5400    0.0440 H   0  0  0  0  0  0  0  0  0  0  0  0
   -2.5470    2.9480    1.7690 H   0  0  0  0  0  0  0  0  0  0  0  0
   -4.4310   -0.7580    0.8270 H   0  0  0  0  0  0  0  0  0  0  0  0
   -3.8800    0.2400   -0.5410 H   0  0  0  0  0  0  0  0  0  0  0  0
   -4.6380    1.6930    1.2420 H   0  0  0  0  0  0  0  0  0  0  0  0
   -3.5910    0.8620    2.4170 H   0  0  0  0  0  0  0  0  0  0  0  0
  1  2  1  0  0  0  0
  1  3  2  0  0  0  0
  1  5  1  0  0  0  0
  2  4  1  0  0  0  0
  2 13  1  0  0  0  0
  4  6  1  0  0  0  0
  4  7  1  0  0  0  0
  4 14  1  0  0  0  0
  5  8  1  0  0  0  0
  5 15  1  0  0  0  0
  5 16  1  0  0  0  0
  6 11  1  0  0  0  0
  6 17  1  0  0  0  0
  6 18  1  0  0  0  0
  7 10  1  0  0  0  0
  7 19  1  0  0  0  0
  7 20  1  0  0  0  0
  8  9  1  0  0  0  0
  8 21  1  0  0  0  0
  8 22  1  0  0  0  0
  9 23  1  0  0  0  0
  9 24  1  0  0  0  0
  9 25  1  0  0  0  0
 10 12  1  0  0  0  0
 10 26  1  0  0  0  0
 10 27  1  0  0  0  0
 11 12  1  0  0  0  0
 11 28  1  0  0  0  0
 11 29  1  0  0  0  0
 12 30  1  0  0  0  0
 12 31  1  0  0  0  0
M  END
>  <$CLUSTER>
480

>  <INDEX>
574395

$$$$
Labotest LT01071576
  MOE2020           3D

 30 31  0  0  0  0  0  0  0  0999 V2000
   -3.3230    1.2810    1.2660 C   0  0  0  0  0  0  0  0  0  0  0  0
   -3.7160    1.5940    2.5710 C   0  0  0  0  0  0  0  0  0  0  0  0
   -5.0130    2.0570    2.8100 C   0  0  0  0  0  0  0  0  0  0  0  0
   -1.9280    0.7850    1.0330 C   0  0  0  0  0  0  0  0  0  0  0  0
   -1.5220    0.4830   -0.1640 N   0  0  0  0  0  0  0  0  0  0  0  0
   -5.9040    2.2040    1.7440 C   0  0  0  0  0  0  0  0  0  0  0  0
   -4.2040    1.4250    0.2090 C   0  0  0  0  0  0  0  0  0  0  0  0
   -5.5000    1.8880    0.4450 C   0  0  0  0  0  0  0  0  0  0  0  0
   -0.1940    0.0300   -0.2480 C   0  0  0  0  0  0  0  0  0  0  0  0
   -2.8380    1.4500    3.6270 O   0  0  0  0  0  0  0  0  0  0  0  0
   -5.3100    2.3400    4.1300 O   0  0  0  0  0  0  0  0  0  0  0  0
    2.4480   -0.8760   -0.4530 C   0  0  0  0  0  0  0  0  0  0  0  0
   -6.5990    2.0730   -0.8420 Cl  0  0  0  0  0  0  0  0  0  0  0  0
    3.7320   -1.2230   -0.5520 F   0  0  0  0  0  0  0  0  0  0  0  0
    0.0940   -1.3360   -0.1500 C   0  0  0  0  0  0  0  0  0  0  0  0
    0.8480    0.9360   -0.4690 C   0  0  0  0  0  0  0  0  0  0  0  0
    2.1670    0.4860   -0.5660 C   0  0  0  0  0  0  0  0  0  0  0  0
    1.4120   -1.7880   -0.2480 C   0  0  0  0  0  0  0  0  0  0  0  0
   -6.6190    2.8140    4.4150 C   0  0  0  0  0  0  0  0  0  0  0  0
   -1.2530    0.6770    1.8690 H   0  0  0  0  0  0  0  0  0  0  0  0
   -6.9070    2.5630    1.9250 H   0  0  0  0  0  0  0  0  0  0  0  0
   -3.8900    1.1800   -0.7950 H   0  0  0  0  0  0  0  0  0  0  0  0
   -3.1940    1.6880    4.4860 H   0  0  0  0  0  0  0  0  0  0  0  0
   -0.7070   -2.0440    0.0020 H   0  0  0  0  0  0  0  0  0  0  0  0
    0.6320    1.9900   -0.5650 H   0  0  0  0  0  0  0  0  0  0  0  0
    2.9680    1.1920   -0.7280 H   0  0  0  0  0  0  0  0  0  0  0  0
    1.6290   -2.8430   -0.1650 H   0  0  0  0  0  0  0  0  0  0  0  0
   -6.7150    2.9950    5.4860 H   0  0  0  0  0  0  0  0  0  0  0  0
   -7.3510    2.0680    4.1060 H   0  0  0  0  0  0  0  0  0  0  0  0
   -6.7950    3.7420    3.8720 H   0  0  0  0  0  0  0  0  0  0  0  0
  1  2  1  0  0  0  0
  1  4  1  0  0  0  0
  1  7  2  0  0  0  0
  2  3  2  0  0  0  0
  2 10  1  0  0  0  0
  3  6  1  0  0  0  0
  3 11  1  0  0  0  0
  4  5  2  0  0  0  0
  4 20  1  0  0  0  0
  5  9  1  0  0  0  0
  6  8  2  0  0  0  0
  6 21  1  0  0  0  0
  7  8  1  0  0  0  0
  7 22  1  0  0  0  0
  8 13  1  0  0  0  0
  9 15  1  0  0  0  0
  9 16  2  0  0  0  0
 10 23  1  0  0  0  0
 11 19  1  0  0  0  0
 12 14  1  0  0  0  0
 12 17  2  0  0  0  0
 12 18  1  0  0  0  0
 15 18  2  0  0  0  0
 15 24  1  0  0  0  0
 16 17  1  0  0  0  0
 16 25  1  0  0  0  0
 17 26  1  0  0  0  0
 18 27  1  0  0  0  0
 19 28  1  0  0  0  0
 19 29  1  0  0  0  0
 19 30  1  0  0  0  0
M  END
>  <$CLUSTER>
481

>  <INDEX>
321996

$$$$
Asinex BAS 02169258
  MOE2020           3D

 51 53  0  0  1  0  0  0  0  0999 V2000
   -1.1780    1.4220    1.0970 C   0  0  0  0  0  0  0  0  0  0  0  0
   -1.9350    2.5750    0.7450 C   0  0  0  0  0  0  0  0  0  0  0  0
   -2.0040    3.6890    1.5890 C   0  0  0  0  0  0  0  0  0  0  0  0
   -1.1630    0.2000    0.1830 C   0  0  3  0  0  0  0  0  0  0  0  0
   -0.5440    1.4360    2.3480 C   0  0  0  0  0  0  0  0  0  0  0  0
   -1.3370    3.6730    2.8150 C   0  0  0  0  0  0  0  0  0  0  0  0
   -0.6110    2.5470    3.1960 C   0  0  0  0  0  0  0  0  0  0  0  0
    0.1180   -0.4900    0.2840 N   0  0  0  0  0  0  0  0  0  0  0  0
    1.2120   -0.1660   -0.5010 C   0  0  0  0  0  0  0  0  0  0  0  0
   -2.7500    4.8000    1.1980 N   0  0  0  0  0  0  0  0  0  0  0  0
   -2.3040   -0.7510    0.5240 C   0  0  0  0  0  0  0  0  0  0  0  0
    1.2470    0.7210   -1.3500 O   0  0  0  0  0  0  0  0  0  0  0  0
   -2.3060   -1.5310    1.6920 C   0  0  0  0  0  0  0  0  0  0  0  0
   -3.4350   -0.8230   -0.3230 C   0  0  0  0  0  0  0  0  0  0  0  0
   -2.6160    2.5920   -0.4580 O   0  0  0  0  0  0  0  0  0  0  0  0
    0.1940    2.5330    4.6960 Cl  0  0  0  0  0  0  0  0  0  0  0  0
   -4.4840   -2.4310    1.1500 C   0  0  0  0  0  0  0  0  0  0  0  0
   -3.3820   -2.3670    2.0030 C   0  0  0  0  0  0  0  0  0  0  0  0
   -4.5110   -1.6610   -0.0110 C   0  0  0  0  0  0  0  0  0  0  0  0
   -1.4110    4.7870    3.6630 C   0  0  0  0  0  0  0  0  0  0  0  0
   -5.4780   -3.2830    1.5640 O   0  0  0  0  0  0  0  0  0  0  0  0
    2.4110   -1.0210   -0.1920 C   0  0  0  0  0  0  0  0  0  0  0  0
   -2.7940    5.8600    2.0450 C   0  0  0  0  0  0  0  0  0  0  0  0
   -6.6260   -3.3840    0.7300 C   0  0  0  0  0  0  0  0  0  0  0  0
    3.6300   -0.6910   -1.0320 C   0  0  0  0  0  0  0  0  0  0  0  0
   -2.1500    5.8990    3.2710 C   0  0  0  0  0  0  0  0  0  0  0  0
    4.8210   -1.5600   -0.7060 C   0  0  0  0  0  0  0  0  0  0  0  0
    6.0340   -1.2210   -1.5520 C   0  0  0  0  0  0  0  0  0  0  0  0
   -1.3010    0.5410   -0.8430 H   0  0  0  0  0  0  0  0  0  0  0  0
    0.0110    0.5660    2.6650 H   0  0  0  0  0  0  0  0  0  0  0  0
    0.2110   -1.2380    0.9570 H   0  0  0  0  0  0  0  0  0  0  0  0
   -1.4600   -1.4840    2.3620 H   0  0  0  0  0  0  0  0  0  0  0  0
   -3.4680   -0.2240   -1.2210 H   0  0  0  0  0  0  0  0  0  0  0  0
   -3.1060    3.3980   -0.6350 H   0  0  0  0  0  0  0  0  0  0  0  0
   -3.3600   -2.9630    2.9030 H   0  0  0  0  0  0  0  0  0  0  0  0
   -5.3640   -1.7110   -0.6710 H   0  0  0  0  0  0  0  0  0  0  0  0
   -0.8980    4.7820    4.6130 H   0  0  0  0  0  0  0  0  0  0  0  0
    2.1440   -2.0630   -0.3670 H   0  0  0  0  0  0  0  0  0  0  0  0
    2.6700   -0.8840    0.8580 H   0  0  0  0  0  0  0  0  0  0  0  0
   -3.3660    6.7260    1.7450 H   0  0  0  0  0  0  0  0  0  0  0  0
   -7.3330   -4.0880    1.1690 H   0  0  0  0  0  0  0  0  0  0  0  0
   -6.3280   -3.7370   -0.2570 H   0  0  0  0  0  0  0  0  0  0  0  0
   -7.0960   -2.4050    0.6390 H   0  0  0  0  0  0  0  0  0  0  0  0
    3.9010    0.3500   -0.8580 H   0  0  0  0  0  0  0  0  0  0  0  0
    3.3760   -0.8290   -2.0830 H   0  0  0  0  0  0  0  0  0  0  0  0
   -2.2200    6.7700    3.9060 H   0  0  0  0  0  0  0  0  0  0  0  0
    4.5520   -2.6020   -0.8810 H   0  0  0  0  0  0  0  0  0  0  0  0
    5.0770   -1.4220    0.3440 H   0  0  0  0  0  0  0  0  0  0  0  0
    5.7910   -1.3550   -2.6060 H   0  0  0  0  0  0  0  0  0  0  0  0
    6.8600   -1.8800   -1.2830 H   0  0  0  0  0  0  0  0  0  0  0  0
    6.3230   -0.1850   -1.3740 H   0  0  0  0  0  0  0  0  0  0  0  0
  1  2  2  0  0  0  0
  1  4  1  0  0  0  0
  1  5  1  0  0  0  0
  2  3  1  0  0  0  0
  2 15  1  0  0  0  0
  3  6  2  0  0  0  0
  3 10  1  0  0  0  0
  4  8  1  0  0  0  0
  4 11  1  0  0  0  0
  4 29  1  0  0  0  0
  5  7  2  0  0  0  0
  5 30  1  0  0  0  0
  6  7  1  0  0  0  0
  6 20  1  0  0  0  0
  7 16  1  0  0  0  0
  8  9  1  0  0  0  0
  8 31  1  0  0  0  0
  9 12  2  0  0  0  0
  9 22  1  0  0  0  0
 10 23  2  0  0  0  0
 11 13  2  0  0  0  0
 11 14  1  0  0  0  0
 13 18  1  0  0  0  0
 13 32  1  0  0  0  0
 14 19  2  0  0  0  0
 14 33  1  0  0  0  0
 15 34  1  0  0  0  0
 17 18  2  0  0  0  0
 17 19  1  0  0  0  0
 17 21  1  0  0  0  0
 18 35  1  0  0  0  0
 19 36  1  0  0  0  0
 20 26  2  0  0  0  0
 20 37  1  0  0  0  0
 21 24  1  0  0  0  0
 22 25  1  0  0  0  0
 22 38  1  0  0  0  0
 22 39  1  0  0  0  0
 23 26  1  0  0  0  0
 23 40  1  0  0  0  0
 24 41  1  0  0  0  0
 24 42  1  0  0  0  0
 24 43  1  0  0  0  0
 25 27  1  0  0  0  0
 25 44  1  0  0  0  0
 25 45  1  0  0  0  0
 26 46  1  0  0  0  0
 27 28  1  0  0  0  0
 27 47  1  0  0  0  0
 27 48  1  0  0  0  0
 28 49  1  0  0  0  0
 28 50  1  0  0  0  0
 28 51  1  0  0  0  0
M  END
>  <$CLUSTER>
482

>  <INDEX>
177425

$$$$
Labotest LT00437441
  MOE2020           3D

 31 33  0  0  0  0  0  0  0  0999 V2000
   -1.1010   -0.9830   -0.8940 C   0  0  0  0  0  0  0  0  0  0  0  0
    0.2770   -0.8120   -1.3780 C   0  0  0  0  0  0  0  0  0  0  0  0
    2.9090    1.6300    0.8660 N   0  3  0  0  0  0  0  0  0  0  0  0
    1.1180   -0.0050   -0.6080 O   0  0  0  0  0  0  0  0  0  0  0  0
    1.5500    1.4180    1.3130 C   0  0  0  0  0  0  0  0  0  0  0  0
    0.6730    0.6220    0.5730 C   0  0  0  0  0  0  0  0  0  0  0  0
   -1.5300   -0.4030    0.2250 C   0  0  0  0  0  0  0  0  0  0  0  0
   -2.0800   -1.8650   -1.5680 C   0  0  0  0  0  0  0  0  0  0  0  0
   -0.6360    0.4310    1.0110 C   0  0  0  0  0  0  0  0  0  0  0  0
    3.0700    2.0320   -0.2940 O   0  5  0  0  0  0  0  0  0  0  0  0
    3.8130    1.4050    1.6810 O   0  0  0  0  0  0  0  0  0  0  0  0
    0.6630   -1.3540   -2.4060 O   0  0  0  0  0  0  0  0  0  0  0  0
   -3.2220   -1.4710   -1.8020 O   0  0  0  0  0  0  0  0  0  0  0  0
   -1.6770   -3.2270   -1.9760 C   0  0  0  0  0  0  0  0  0  0  0  0
    1.1400    2.0280    2.4990 C   0  0  0  0  0  0  0  0  0  0  0  0
   -1.0570    1.0440    2.1970 C   0  0  0  0  0  0  0  0  0  0  0  0
   -0.1710    1.8370    2.9360 C   0  0  0  0  0  0  0  0  0  0  0  0
   -2.2410   -3.7660   -3.1390 C   0  0  0  0  0  0  0  0  0  0  0  0
   -0.8010   -3.9970   -1.2040 C   0  0  0  0  0  0  0  0  0  0  0  0
   -0.4680   -5.2890   -1.6130 C   0  0  0  0  0  0  0  0  0  0  0  0
   -1.9030   -5.0590   -3.5440 C   0  0  0  0  0  0  0  0  0  0  0  0
   -1.0150   -5.8180   -2.7820 C   0  0  0  0  0  0  0  0  0  0  0  0
   -2.5490   -0.5530    0.5510 H   0  0  0  0  0  0  0  0  0  0  0  0
    1.8260    2.6370    3.0690 H   0  0  0  0  0  0  0  0  0  0  0  0
   -2.0700    0.9040    2.5440 H   0  0  0  0  0  0  0  0  0  0  0  0
   -0.5050    2.3040    3.8510 H   0  0  0  0  0  0  0  0  0  0  0  0
   -2.9370   -3.1820   -3.7230 H   0  0  0  0  0  0  0  0  0  0  0  0
   -0.3830   -3.5930   -0.2940 H   0  0  0  0  0  0  0  0  0  0  0  0
    0.2150   -5.8810   -1.0230 H   0  0  0  0  0  0  0  0  0  0  0  0
   -2.3290   -5.4710   -4.4470 H   0  0  0  0  0  0  0  0  0  0  0  0
   -0.7510   -6.8160   -3.0970 H   0  0  0  0  0  0  0  0  0  0  0  0
  1  2  1  0  0  0  0
  1  7  2  0  0  0  0
  1  8  1  0  0  0  0
  2  4  1  0  0  0  0
  2 12  2  0  0  0  0
  3  5  1  0  0  0  0
  3 10  1  0  0  0  0
  3 11  2  0  0  0  0
  4  6  1  0  0  0  0
  5  6  2  0  0  0  0
  5 15  1  0  0  0  0
  6  9  1  0  0  0  0
  7  9  1  0  0  0  0
  7 23  1  0  0  0  0
  8 13  2  0  0  0  0
  8 14  1  0  0  0  0
  9 16  2  0  0  0  0
 14 18  1  0  0  0  0
 14 19  2  0  0  0  0
 15 17  2  0  0  0  0
 15 24  1  0  0  0  0
 16 17  1  0  0  0  0
 16 25  1  0  0  0  0
 17 26  1  0  0  0  0
 18 21  2  0  0  0  0
 18 27  1  0  0  0  0
 19 20  1  0  0  0  0
 19 28  1  0  0  0  0
 20 22  2  0  0  0  0
 20 29  1  0  0  0  0
 21 22  1  0  0  0  0
 21 30  1  0  0  0  0
 22 31  1  0  0  0  0
M  CHG  1   3   1
M  CHG  1  10  -1
M  END
>  <$CLUSTER>
483

>  <INDEX>
318353

$$$$
Chemdiv 2262-1592
  MOE2020           3D

 47 50  0  0  0  0  0  0  0  0999 V2000
    0.3620    0.6510   -0.0820 N   0  3  0  0  0  0  0  0  0  0  0  0
    4.3840   -6.9090    0.9600 C   0  0  0  0  0  0  0  0  0  0  0  0
    5.3710   -9.4830    1.0540 N   0  0  0  0  0  0  0  0  0  0  0  0
    4.5880   -9.0620    0.0330 C   0  0  0  0  0  0  0  0  0  0  0  0
    4.0760   -7.7840   -0.0610 C   0  0  0  0  0  0  0  0  0  0  0  0
    3.8950   -5.4690    0.8280 C   0  0  0  0  0  0  0  0  0  0  0  0
   -0.2920   -0.6470    0.0810 C   0  0  0  0  0  0  0  0  0  0  0  0
    5.1920   -7.2670    2.0490 C   0  0  0  0  0  0  0  0  0  0  0  0
    5.6640   -8.6030    2.0420 C   0  0  0  0  0  0  0  0  0  0  0  0
   -0.2010   -2.9910    0.3540 C   0  0  0  0  0  0  0  0  0  0  0  0
    0.4780   -1.7400    0.1970 C   0  0  0  0  0  0  0  0  0  0  0  0
    1.8910   -4.2210    0.4650 N   0  0  0  0  0  0  0  0  0  0  0  0
    1.6040    0.6970   -0.1070 O   0  5  0  0  0  0  0  0  0  0  0  0
   -0.3660    1.6520   -0.1880 O   0  0  0  0  0  0  0  0  0  0  0  0
   -1.5980   -3.0520    0.3820 C   0  0  0  0  0  0  0  0  0  0  0  0
    2.4530   -5.4420    0.6010 N   0  0  0  0  0  0  0  0  0  0  0  0
    4.6360   -4.5260    0.9060 O   0  0  0  0  0  0  0  0  0  0  0  0
    0.5930   -4.2140    0.4840 C   0  0  0  0  0  0  0  0  0  0  0  0
    4.2810  -10.0130   -1.0430 C   0  0  0  0  0  0  0  0  0  0  0  0
   -1.7850   -0.6130    0.1000 C   0  0  0  0  0  0  0  0  0  0  0  0
   -2.3570   -1.8850    0.2570 C   0  0  0  0  0  0  0  0  0  0  0  0
   -2.2350   -4.2670    0.5350 O   0  0  0  0  0  0  0  0  0  0  0  0
    5.5340   -6.4270    3.1350 C   0  0  0  0  0  0  0  0  0  0  0  0
    6.4620   -9.0370    3.0970 C   0  0  0  0  0  0  0  0  0  0  0  0
    2.9560  -10.3590   -1.3530 C   0  0  0  0  0  0  0  0  0  0  0  0
    5.3240  -10.6140   -1.7640 C   0  0  0  0  0  0  0  0  0  0  0  0
    6.3330   -6.8910    4.1780 C   0  0  0  0  0  0  0  0  0  0  0  0
    6.8000   -8.1980    4.1580 C   0  0  0  0  0  0  0  0  0  0  0  0
    5.0470  -11.5360   -2.7770 C   0  0  0  0  0  0  0  0  0  0  0  0
    2.6830  -11.2820   -2.3660 C   0  0  0  0  0  0  0  0  0  0  0  0
    3.7280  -11.8680   -3.0780 C   0  0  0  0  0  0  0  0  0  0  0  0
    3.4620   -7.4820   -0.8960 H   0  0  0  0  0  0  0  0  0  0  0  0
    1.5560   -1.6790    0.1730 H   0  0  0  0  0  0  0  0  0  0  0  0
    1.9060   -6.2890    0.5490 H   0  0  0  0  0  0  0  0  0  0  0  0
    0.0750   -5.1540    0.6010 H   0  0  0  0  0  0  0  0  0  0  0  0
   -2.3630    0.2940    0.0030 H   0  0  0  0  0  0  0  0  0  0  0  0
   -3.4340   -1.9660    0.2820 H   0  0  0  0  0  0  0  0  0  0  0  0
   -3.1940   -4.2240    0.5450 H   0  0  0  0  0  0  0  0  0  0  0  0
    5.1700   -5.4100    3.1560 H   0  0  0  0  0  0  0  0  0  0  0  0
    6.8300  -10.0520    3.0930 H   0  0  0  0  0  0  0  0  0  0  0  0
    2.1420   -9.9090   -0.8050 H   0  0  0  0  0  0  0  0  0  0  0  0
    6.3490  -10.3620   -1.5340 H   0  0  0  0  0  0  0  0  0  0  0  0
    6.5880   -6.2370    4.9980 H   0  0  0  0  0  0  0  0  0  0  0  0
    7.4230   -8.5640    4.9610 H   0  0  0  0  0  0  0  0  0  0  0  0
    5.8570  -11.9920   -3.3270 H   0  0  0  0  0  0  0  0  0  0  0  0
    1.6610  -11.5420   -2.5980 H   0  0  0  0  0  0  0  0  0  0  0  0
    3.5150  -12.5790   -3.8630 H   0  0  0  0  0  0  0  0  0  0  0  0
  1  7  1  0  0  0  0
  1 13  1  0  0  0  0
  1 14  2  0  0  0  0
  2  5  2  0  0  0  0
  2  6  1  0  0  0  0
  2  8  1  0  0  0  0
  3  4  2  0  0  0  0
  3  9  1  0  0  0  0
  4  5  1  0  0  0  0
  4 19  1  0  0  0  0
  5 32  1  0  0  0  0
  6 16  1  0  0  0  0
  6 17  2  0  0  0  0
  7 11  2  0  0  0  0
  7 20  1  0  0  0  0
  8  9  2  0  0  0  0
  8 23  1  0  0  0  0
  9 24  1  0  0  0  0
 10 11  1  0  0  0  0
 10 15  2  0  0  0  0
 10 18  1  0  0  0  0
 11 33  1  0  0  0  0
 12 16  1  0  0  0  0
 12 18  2  0  0  0  0
 15 21  1  0  0  0  0
 15 22  1  0  0  0  0
 16 34  1  0  0  0  0
 18 35  1  0  0  0  0
 19 25  1  0  0  0  0
 19 26  2  0  0  0  0
 20 21  2  0  0  0  0
 20 36  1  0  0  0  0
 21 37  1  0  0  0  0
 22 38  1  0  0  0  0
 23 27  2  0  0  0  0
 23 39  1  0  0  0  0
 24 28  2  0  0  0  0
 24 40  1  0  0  0  0
 25 30  2  0  0  0  0
 25 41  1  0  0  0  0
 26 29  1  0  0  0  0
 26 42  1  0  0  0  0
 27 28  1  0  0  0  0
 27 43  1  0  0  0  0
 28 44  1  0  0  0  0
 29 31  2  0  0  0  0
 29 45  1  0  0  0  0
 30 31  1  0  0  0  0
 30 46  1  0  0  0  0
 31 47  1  0  0  0  0
M  CHG  1   1   1
M  CHG  1  13  -1
M  END
>  <$CLUSTER>
484

>  <INDEX>
21448

$$$$
Enamine T0500-2643
  MOE2020           3D

 30 32  0  0  0  0  0  0  0  0999 V2000
   -0.4370   -0.4840   -0.9420 N   0  0  0  0  0  0  0  0  0  0  0  0
   -1.0290   -0.7290   -2.1830 C   0  0  0  0  0  0  0  0  0  0  0  0
   -2.2340   -1.2440   -2.0560 N   0  0  0  0  0  0  0  0  0  0  0  0
    0.8210    0.1170   -0.7210 C   0  0  0  0  0  0  0  0  0  0  0  0
   -1.3340   -0.9600    0.0130 C   0  0  0  0  0  0  0  0  0  0  0  0
   -2.4390   -1.3970   -0.7160 C   0  0  0  0  0  0  0  0  0  0  0  0
    1.6080    0.1610   -1.6590 O   0  0  0  0  0  0  0  0  0  0  0  0
    1.2630    0.7250    0.5430 C   0  0  0  0  0  0  0  0  0  0  0  0
   -0.4120   -0.3980   -3.4950 C   0  0  0  0  0  0  0  0  0  0  0  0
   -1.2900   -1.0910    1.4100 C   0  0  0  0  0  0  0  0  0  0  0  0
   -3.5590   -1.9280   -0.0510 C   0  0  0  0  0  0  0  0  0  0  0  0
    2.4770    0.3270    1.1040 C   0  0  0  0  0  0  0  0  0  0  0  0
    0.5020    1.7400    1.1280 C   0  0  0  0  0  0  0  0  0  0  0  0
   -2.4100   -1.6250    2.0580 C   0  0  0  0  0  0  0  0  0  0  0  0
   -3.5320   -2.0310    1.3420 C   0  0  0  0  0  0  0  0  0  0  0  0
    0.9480    2.3370    2.3070 C   0  0  0  0  0  0  0  0  0  0  0  0
    2.9160    0.9280    2.2840 C   0  0  0  0  0  0  0  0  0  0  0  0
    2.1510    1.9290    2.8860 C   0  0  0  0  0  0  0  0  0  0  0  0
    0.5840    0.0140   -3.3340 H   0  0  0  0  0  0  0  0  0  0  0  0
   -1.0290    0.3370   -4.0120 H   0  0  0  0  0  0  0  0  0  0  0  0
   -0.3390   -1.3010   -4.1000 H   0  0  0  0  0  0  0  0  0  0  0  0
   -0.4170   -0.7880    1.9690 H   0  0  0  0  0  0  0  0  0  0  0  0
   -4.4260   -2.2510   -0.6080 H   0  0  0  0  0  0  0  0  0  0  0  0
    3.0710   -0.4390    0.6290 H   0  0  0  0  0  0  0  0  0  0  0  0
   -0.4230    2.0590    0.6720 H   0  0  0  0  0  0  0  0  0  0  0  0
   -2.4030   -1.7240    3.1330 H   0  0  0  0  0  0  0  0  0  0  0  0
   -4.3880   -2.4290    1.8670 H   0  0  0  0  0  0  0  0  0  0  0  0
    0.3620    3.1160    2.7720 H   0  0  0  0  0  0  0  0  0  0  0  0
    3.8490    0.6190    2.7320 H   0  0  0  0  0  0  0  0  0  0  0  0
    2.4910    2.3890    3.8020 H   0  0  0  0  0  0  0  0  0  0  0  0
  1  2  1  0  0  0  0
  1  4  1  0  0  0  0
  1  5  1  0  0  0  0
  2  3  2  0  0  0  0
  2  9  1  0  0  0  0
  3  6  1  0  0  0  0
  4  7  2  0  0  0  0
  4  8  1  0  0  0  0
  5  6  2  0  0  0  0
  5 10  1  0  0  0  0
  6 11  1  0  0  0  0
  8 12  1  0  0  0  0
  8 13  2  0  0  0  0
  9 19  1  0  0  0  0
  9 20  1  0  0  0  0
  9 21  1  0  0  0  0
 10 14  2  0  0  0  0
 10 22  1  0  0  0  0
 11 15  2  0  0  0  0
 11 23  1  0  0  0  0
 12 17  2  0  0  0  0
 12 24  1  0  0  0  0
 13 16  1  0  0  0  0
 13 25  1  0  0  0  0
 14 15  1  0  0  0  0
 14 26  1  0  0  0  0
 15 27  1  0  0  0  0
 16 18  2  0  0  0  0
 16 28  1  0  0  0  0
 17 18  1  0  0  0  0
 17 29  1  0  0  0  0
 18 30  1  0  0  0  0
M  END
>  <$CLUSTER>
485

>  <INDEX>
404379

$$$$
Labotest LT00502100
  MOE2020           3D

 39 40  0  0  0  0  0  0  0  0999 V2000
   -1.1410    0.5590    0.3880 C   0  0  0  0  0  0  0  0  0  0  0  0
    0.0880   -0.2400    0.5730 C   0  0  0  0  0  0  0  0  0  0  0  0
    1.0900   -0.3420   -0.3150 C   0  0  0  0  0  0  0  0  0  0  0  0
   -1.7540    0.8610    1.5820 N   0  0  0  0  0  0  0  0  0  0  0  0
   -1.5810    0.8970   -0.7050 O   0  0  0  0  0  0  0  0  0  0  0  0
   -1.3260    0.4990    2.9420 C   0  0  0  0  0  0  0  0  0  0  0  0
    2.2560   -1.2530   -0.0260 C   0  0  0  0  0  0  0  0  0  0  0  0
   -0.4890    1.5900    3.5910 C   0  0  0  0  0  0  0  0  0  0  0  0
    1.2010    0.3970   -1.6200 C   0  0  0  0  0  0  0  0  0  0  0  0
   -3.0180    1.6840    1.5620 C   0  0  0  0  0  0  0  0  0  0  0  0
    2.7250   -2.1540   -0.9800 C   0  0  0  0  0  0  0  0  0  0  0  0
    2.8800   -1.2250    1.2410 C   0  0  0  0  0  0  0  0  0  0  0  0
   -1.0730    2.4920    4.4870 C   0  0  0  0  0  0  0  0  0  0  0  0
    0.8690    1.7180    3.2730 C   0  0  0  0  0  0  0  0  0  0  0  0
    3.9540   -2.0700    1.5210 C   0  0  0  0  0  0  0  0  0  0  0  0
    3.7990   -3.0010   -0.6980 C   0  0  0  0  0  0  0  0  0  0  0  0
    1.6410    2.7180    3.8690 C   0  0  0  0  0  0  0  0  0  0  0  0
   -0.3000    3.4930    5.0830 C   0  0  0  0  0  0  0  0  0  0  0  0
    1.0570    3.6030    4.7760 C   0  0  0  0  0  0  0  0  0  0  0  0
    4.4130   -2.9580    0.5510 C   0  0  0  0  0  0  0  0  0  0  0  0
    0.1890   -0.7870    1.4990 H   0  0  0  0  0  0  0  0  0  0  0  0
   -2.2110    0.3250    3.5540 H   0  0  0  0  0  0  0  0  0  0  0  0
   -0.7340   -0.4150    2.8920 H   0  0  0  0  0  0  0  0  0  0  0  0
    2.1230    0.1080   -2.1240 H   0  0  0  0  0  0  0  0  0  0  0  0
    1.2120    1.4700   -1.4300 H   0  0  0  0  0  0  0  0  0  0  0  0
    0.3480    0.1480   -2.2520 H   0  0  0  0  0  0  0  0  0  0  0  0
   -3.3720    1.8310    2.5820 H   0  0  0  0  0  0  0  0  0  0  0  0
   -3.7820    1.1630    0.9840 H   0  0  0  0  0  0  0  0  0  0  0  0
   -2.8140    2.6520    1.1050 H   0  0  0  0  0  0  0  0  0  0  0  0
    2.2520   -2.1980   -1.9500 H   0  0  0  0  0  0  0  0  0  0  0  0
    2.5230   -0.5440    1.9990 H   0  0  0  0  0  0  0  0  0  0  0  0
   -2.1250    2.4150    4.7190 H   0  0  0  0  0  0  0  0  0  0  0  0
    1.3210    1.0410    2.5640 H   0  0  0  0  0  0  0  0  0  0  0  0
    4.4300   -2.0360    2.4900 H   0  0  0  0  0  0  0  0  0  0  0  0
    4.1540   -3.6900   -1.4500 H   0  0  0  0  0  0  0  0  0  0  0  0
    2.6900    2.8060    3.6280 H   0  0  0  0  0  0  0  0  0  0  0  0
   -0.7530    4.1810    5.7810 H   0  0  0  0  0  0  0  0  0  0  0  0
    1.6550    4.3730    5.2400 H   0  0  0  0  0  0  0  0  0  0  0  0
    5.2440   -3.6130    0.7670 H   0  0  0  0  0  0  0  0  0  0  0  0
  1  2  1  0  0  0  0
  1  4  1  0  0  0  0
  1  5  2  0  0  0  0
  2  3  2  0  0  0  0
  2 21  1  0  0  0  0
  3  7  1  0  0  0  0
  3  9  1  0  0  0  0
  4  6  1  0  0  0  0
  4 10  1  0  0  0  0
  6  8  1  0  0  0  0
  6 22  1  0  0  0  0
  6 23  1  0  0  0  0
  7 11  1  0  0  0  0
  7 12  2  0  0  0  0
  8 13  1  0  0  0  0
  8 14  2  0  0  0  0
  9 24  1  0  0  0  0
  9 25  1  0  0  0  0
  9 26  1  0  0  0  0
 10 27  1  0  0  0  0
 10 28  1  0  0  0  0
 10 29  1  0  0  0  0
 11 16  2  0  0  0  0
 11 30  1  0  0  0  0
 12 15  1  0  0  0  0
 12 31  1  0  0  0  0
 13 18  2  0  0  0  0
 13 32  1  0  0  0  0
 14 17  1  0  0  0  0
 14 33  1  0  0  0  0
 15 20  2  0  0  0  0
 15 34  1  0  0  0  0
 16 20  1  0  0  0  0
 16 35  1  0  0  0  0
 17 19  2  0  0  0  0
 17 36  1  0  0  0  0
 18 19  1  0  0  0  0
 18 37  1  0  0  0  0
 19 38  1  0  0  0  0
 20 39  1  0  0  0  0
M  END
>  <$CLUSTER>
486

>  <INDEX>
319422

$$$$
Labotest LT00590536
  MOE2020           3D

 30 31  0  0  0  0  0  0  0  0999 V2000
   -0.2440   -0.0610    0.9590 C   0  0  0  0  0  0  0  0  0  0  0  0
   -0.7380   -1.0370    0.1740 C   0  0  0  0  0  0  0  0  0  0  0  0
   -0.1050    1.3470    0.4760 C   0  0  0  0  0  0  0  0  0  0  0  0
    0.4660    1.5880   -0.7600 N   0  0  0  0  0  0  0  0  0  0  0  0
   -1.1410   -0.7700   -1.1260 O   0  0  0  0  0  0  0  0  0  0  0  0
    0.1520   -0.4350    2.3430 C   0  0  0  0  0  0  0  0  0  0  0  0
    0.6310    0.7070   -1.8430 C   0  0  0  0  0  0  0  0  0  0  0  0
   -0.1290   -0.4520   -1.9950 C   0  0  0  0  0  0  0  0  0  0  0  0
   -0.4910    2.6910    1.4280 S   0  0  0  0  0  0  0  0  0  0  0  0
   -0.9310   -2.3420    0.5390 N   0  0  0  0  0  0  0  0  0  0  0  0
   -0.4730   -1.1720    3.0920 O   0  0  0  0  0  0  0  0  0  0  0  0
    1.3370    0.1420    2.6570 O   0  0  0  0  0  0  0  0  0  0  0  0
    1.5340    1.0640   -2.8520 C   0  0  0  0  0  0  0  0  0  0  0  0
    0.0220   -1.2630   -3.1230 C   0  0  0  0  0  0  0  0  0  0  0  0
    1.8670   -0.1230    3.9650 C   0  0  0  0  0  0  0  0  0  0  0  0
    3.1790    0.6180    4.1250 C   0  0  0  0  0  0  0  0  0  0  0  0
    1.7020    0.2460   -3.9710 C   0  0  0  0  0  0  0  0  0  0  0  0
    0.9500   -0.9200   -4.1050 C   0  0  0  0  0  0  0  0  0  0  0  0
    0.8120    2.5260   -0.9050 H   0  0  0  0  0  0  0  0  0  0  0  0
   -0.6950   -2.6450    1.4730 H   0  0  0  0  0  0  0  0  0  0  0  0
   -1.3090   -3.0020   -0.1260 H   0  0  0  0  0  0  0  0  0  0  0  0
    2.1040    1.9770   -2.7640 H   0  0  0  0  0  0  0  0  0  0  0  0
   -0.5790   -2.1540   -3.2340 H   0  0  0  0  0  0  0  0  0  0  0  0
    2.0350   -1.1940    4.0810 H   0  0  0  0  0  0  0  0  0  0  0  0
    1.1600    0.2180    4.7220 H   0  0  0  0  0  0  0  0  0  0  0  0
    3.8840    0.2760    3.3680 H   0  0  0  0  0  0  0  0  0  0  0  0
    3.5880    0.4230    5.1160 H   0  0  0  0  0  0  0  0  0  0  0  0
    3.0090    1.6880    4.0060 H   0  0  0  0  0  0  0  0  0  0  0  0
    2.4160    0.5170   -4.7340 H   0  0  0  0  0  0  0  0  0  0  0  0
    1.0860   -1.5560   -4.9670 H   0  0  0  0  0  0  0  0  0  0  0  0
  1  2  2  0  0  0  0
  1  3  1  0  0  0  0
  1  6  1  0  0  0  0
  2  5  1  0  0  0  0
  2 10  1  0  0  0  0
  3  4  1  0  0  0  0
  3  9  2  0  0  0  0
  4  7  1  0  0  0  0
  4 19  1  0  0  0  0
  5  8  1  0  0  0  0
  6 11  2  0  0  0  0
  6 12  1  0  0  0  0
  7  8  2  0  0  0  0
  7 13  1  0  0  0  0
  8 14  1  0  0  0  0
 10 20  1  0  0  0  0
 10 21  1  0  0  0  0
 12 15  1  0  0  0  0
 13 17  2  0  0  0  0
 13 22  1  0  0  0  0
 14 18  2  0  0  0  0
 14 23  1  0  0  0  0
 15 16  1  0  0  0  0
 15 24  1  0  0  0  0
 15 25  1  0  0  0  0
 16 26  1  0  0  0  0
 16 27  1  0  0  0  0
 16 28  1  0  0  0  0
 17 18  1  0  0  0  0
 17 29  1  0  0  0  0
 18 30  1  0  0  0  0
M  END
>  <$CLUSTER>
487

>  <INDEX>
320202

$$$$
Labotest LT00108609
  MOE2020           3D

 34 37  0  0  0  0  0  0  0  0999 V2000
   -0.8150   -0.6490   -0.8500 C   0  0  0  0  0  0  0  0  0  0  0  0
    0.3330    0.1050   -1.0390 N   0  0  0  0  0  0  0  0  0  0  0  0
   -1.6240   -0.8620    0.3160 C   0  0  0  0  0  0  0  0  0  0  0  0
    0.5270    0.2090   -2.3800 N   0  0  0  0  0  0  0  0  0  0  0  0
   -0.3750   -0.5740   -2.9490 N   0  0  0  0  0  0  0  0  0  0  0  0
   -1.2110   -1.1170   -2.0160 N   0  0  0  0  0  0  0  0  0  0  0  0
   -2.9440   -1.7990    1.7750 N   0  0  0  0  0  0  0  0  0  0  0  0
   -2.7980   -0.5460    2.2420 N   0  0  0  0  0  0  0  0  0  0  0  0
   -2.2670   -2.0380    0.6130 C   0  0  0  0  0  0  0  0  0  0  0  0
   -2.0010    0.0290    1.3370 C   0  0  0  0  0  0  0  0  0  0  0  0
    1.2420    0.6970   -0.1290 C   0  0  0  0  0  0  0  0  0  0  0  0
   -3.7720   -2.7410    2.5030 C   0  0  0  0  0  0  0  0  0  0  0  0
    1.3080    0.2880    1.2070 C   0  0  0  0  0  0  0  0  0  0  0  0
    2.1310    1.6820   -0.5900 C   0  0  0  0  0  0  0  0  0  0  0  0
   -3.9430   -4.0540    2.0440 C   0  0  0  0  0  0  0  0  0  0  0  0
   -4.4120   -2.3360    3.6840 C   0  0  0  0  0  0  0  0  0  0  0  0
   -5.3780   -4.5400    3.9340 C   0  0  0  0  0  0  0  0  0  0  0  0
    3.0890    1.8760    1.6210 C   0  0  0  0  0  0  0  0  0  0  0  0
   -4.7450   -4.9470    2.7610 C   0  0  0  0  0  0  0  0  0  0  0  0
    2.2260    0.8830    2.0780 C   0  0  0  0  0  0  0  0  0  0  0  0
   -5.2110   -3.2360    4.3950 C   0  0  0  0  0  0  0  0  0  0  0  0
    3.0440    2.2720    0.2870 C   0  0  0  0  0  0  0  0  0  0  0  0
   -6.3490   -5.6440    4.7910 Cl  0  0  0  0  0  0  0  0  0  0  0  0
    4.1890    2.5950    2.7020 Cl  0  0  0  0  0  0  0  0  0  0  0  0
   -2.2430   -2.9580    0.0470 H   0  0  0  0  0  0  0  0  0  0  0  0
   -1.6830    1.0600    1.3840 H   0  0  0  0  0  0  0  0  0  0  0  0
    0.6490   -0.4880    1.5660 H   0  0  0  0  0  0  0  0  0  0  0  0
    2.1080    1.9840   -1.6270 H   0  0  0  0  0  0  0  0  0  0  0  0
   -3.4550   -4.3760    1.1360 H   0  0  0  0  0  0  0  0  0  0  0  0
   -4.2870   -1.3260    4.0450 H   0  0  0  0  0  0  0  0  0  0  0  0
   -4.8750   -5.9580    2.4040 H   0  0  0  0  0  0  0  0  0  0  0  0
    2.2660    0.5710    3.1110 H   0  0  0  0  0  0  0  0  0  0  0  0
   -5.7000   -2.9200    5.3040 H   0  0  0  0  0  0  0  0  0  0  0  0
    3.7170    3.0370   -0.0710 H   0  0  0  0  0  0  0  0  0  0  0  0
  1  2  1  0  0  0  0
  1  3  1  0  0  0  0
  1  6  2  0  0  0  0
  2  4  1  0  0  0  0
  2 11  1  0  0  0  0
  3  9  2  0  0  0  0
  3 10  1  0  0  0  0
  4  5  2  0  0  0  0
  5  6  1  0  0  0  0
  7  8  1  0  0  0  0
  7  9  1  0  0  0  0
  7 12  1  0  0  0  0
  8 10  2  0  0  0  0
  9 25  1  0  0  0  0
 10 26  1  0  0  0  0
 11 13  2  0  0  0  0
 11 14  1  0  0  0  0
 12 15  2  0  0  0  0
 12 16  1  0  0  0  0
 13 20  1  0  0  0  0
 13 27  1  0  0  0  0
 14 22  2  0  0  0  0
 14 28  1  0  0  0  0
 15 19  1  0  0  0  0
 15 29  1  0  0  0  0
 16 21  2  0  0  0  0
 16 30  1  0  0  0  0
 17 19  2  0  0  0  0
 17 21  1  0  0  0  0
 17 23  1  0  0  0  0
 18 20  2  0  0  0  0
 18 22  1  0  0  0  0
 18 24  1  0  0  0  0
 19 31  1  0  0  0  0
 20 32  1  0  0  0  0
 21 33  1  0  0  0  0
 22 34  1  0  0  0  0
M  END
>  <$CLUSTER>
488

>  <INDEX>
314245

$$$$
Labotest LT00660049
  MOE2020           3D

 40 41  0  0  0  0  0  0  0  0999 V2000
   -0.1160   -1.0820    0.9080 C   0  0  0  0  0  0  0  0  0  0  0  0
    0.1770    0.9940   -1.0040 C   0  0  0  0  0  0  0  0  0  0  0  0
    1.2590    0.1480   -0.6730 N   0  0  0  0  0  0  0  0  0  0  0  0
   -0.9910    0.8720   -0.2190 N   0  0  0  0  0  0  0  0  0  0  0  0
    1.1920   -0.8810    0.2600 C   0  0  0  0  0  0  0  0  0  0  0  0
   -1.1510   -0.0520    0.8070 C   0  0  0  0  0  0  0  0  0  0  0  0
   -0.2920   -2.2280    1.5920 C   0  0  0  0  0  0  0  0  0  0  0  0
    0.2840    2.1240   -2.2800 S   0  0  0  0  0  0  0  0  0  0  0  0
    2.1460   -1.6090    0.5320 O   0  0  0  0  0  0  0  0  0  0  0  0
   -2.0840   -0.0090    1.6070 O   0  0  0  0  0  0  0  0  0  0  0  0
   -2.1630    1.7630   -0.4090 C   0  0  0  0  0  0  0  0  0  0  0  0
    2.5880    0.2870   -1.3190 C   0  0  0  0  0  0  0  0  0  0  0  0
   -1.5220   -2.7230    2.2870 C   0  0  0  0  0  0  0  0  0  0  0  0
   -3.8040   -3.6230    3.5720 C   0  0  0  0  0  0  0  0  0  0  0  0
   -1.8020   -4.0570    2.2920 C   0  0  0  0  0  0  0  0  0  0  0  0
   -2.3640   -1.7950    2.9160 C   0  0  0  0  0  0  0  0  0  0  0  0
   -2.9490   -4.5210    2.9390 C   0  0  0  0  0  0  0  0  0  0  0  0
   -3.5100   -2.2600    3.5630 C   0  0  0  0  0  0  0  0  0  0  0  0
   -4.9050   -4.1980    4.1770 O   0  0  0  0  0  0  0  0  0  0  0  0
   -5.8090   -3.3210    4.8390 C   0  0  0  0  0  0  0  0  0  0  0  0
    2.7400   -0.6300   -2.5300 C   0  0  0  0  0  0  0  0  0  0  0  0
   -2.0690    3.0250    0.4420 C   0  0  0  0  0  0  0  0  0  0  0  0
    0.5690   -2.8770    1.6470 H   0  0  0  0  0  0  0  0  0  0  0  0
   -2.2190    2.0510   -1.4590 H   0  0  0  0  0  0  0  0  0  0  0  0
   -3.0660    1.2190   -0.1320 H   0  0  0  0  0  0  0  0  0  0  0  0
    2.7140    1.3200   -1.6430 H   0  0  0  0  0  0  0  0  0  0  0  0
    3.3600    0.0380   -0.5910 H   0  0  0  0  0  0  0  0  0  0  0  0
   -1.1400   -4.7520    1.7980 H   0  0  0  0  0  0  0  0  0  0  0  0
   -2.1300   -0.7410    2.9000 H   0  0  0  0  0  0  0  0  0  0  0  0
   -3.1730   -5.5770    2.9480 H   0  0  0  0  0  0  0  0  0  0  0  0
   -4.1700   -1.5630    4.0580 H   0  0  0  0  0  0  0  0  0  0  0  0
   -6.6260   -3.8990    5.2700 H   0  0  0  0  0  0  0  0  0  0  0  0
   -6.2090   -2.6040    4.1230 H   0  0  0  0  0  0  0  0  0  0  0  0
   -5.2840   -2.7880    5.6320 H   0  0  0  0  0  0  0  0  0  0  0  0
    1.9730   -0.3900   -3.2660 H   0  0  0  0  0  0  0  0  0  0  0  0
    2.6300   -1.6680   -2.2160 H   0  0  0  0  0  0  0  0  0  0  0  0
    3.7260   -0.4870   -2.9730 H   0  0  0  0  0  0  0  0  0  0  0  0
   -1.1690    3.5780    0.1740 H   0  0  0  0  0  0  0  0  0  0  0  0
   -2.0260    2.7500    1.4960 H   0  0  0  0  0  0  0  0  0  0  0  0
   -2.9450    3.6490    0.2640 H   0  0  0  0  0  0  0  0  0  0  0  0
  1  5  1  0  0  0  0
  1  6  1  0  0  0  0
  1  7  2  0  0  0  0
  2  3  1  0  0  0  0
  2  4  1  0  0  0  0
  2  8  2  0  0  0  0
  3  5  1  0  0  0  0
  3 12  1  0  0  0  0
  4  6  1  0  0  0  0
  4 11  1  0  0  0  0
  5  9  2  0  0  0  0
  6 10  2  0  0  0  0
  7 13  1  0  0  0  0
  7 23  1  0  0  0  0
 11 22  1  0  0  0  0
 11 24  1  0  0  0  0
 11 25  1  0  0  0  0
 12 21  1  0  0  0  0
 12 26  1  0  0  0  0
 12 27  1  0  0  0  0
 13 15  2  0  0  0  0
 13 16  1  0  0  0  0
 14 17  2  0  0  0  0
 14 18  1  0  0  0  0
 14 19  1  0  0  0  0
 15 17  1  0  0  0  0
 15 28  1  0  0  0  0
 16 18  2  0  0  0  0
 16 29  1  0  0  0  0
 17 30  1  0  0  0  0
 18 31  1  0  0  0  0
 19 20  1  0  0  0  0
 20 32  1  0  0  0  0
 20 33  1  0  0  0  0
 20 34  1  0  0  0  0
 21 35  1  0  0  0  0
 21 36  1  0  0  0  0
 21 37  1  0  0  0  0
 22 38  1  0  0  0  0
 22 39  1  0  0  0  0
 22 40  1  0  0  0  0
M  END
>  <$CLUSTER>
489

>  <INDEX>
320564

$$$$
Labotest LT00689458
  MOE2020           3D

 43 45  0  0  0  0  0  0  0  0999 V2000
   -0.0360    0.7600   -0.5970 N   0  0  0  0  0  0  0  0  0  0  0  0
   -1.2760    1.0170   -0.0430 C   0  0  0  0  0  0  0  0  0  0  0  0
    0.5750   -0.4310   -0.2340 C   0  0  0  0  0  0  0  0  0  0  0  0
   -0.2800   -1.1980    0.6950 C   0  0  0  0  0  0  0  0  0  0  0  0
   -1.7430   -0.3210    1.0060 S   0  0  0  0  0  0  0  0  0  0  0  0
    5.1570   -5.8550   -0.4860 C   0  0  0  0  0  0  0  0  0  0  0  0
    6.2880   -6.7910   -0.3650 C   0  0  0  0  0  0  0  0  0  0  0  0
   -0.0440   -2.3860    1.2590 C   0  0  0  0  0  0  0  0  0  0  0  0
    4.4630   -5.7540    0.7520 O   0  0  0  0  0  0  0  0  0  0  0  0
    0.6600    1.6590   -1.5220 C   0  0  0  0  0  0  0  0  0  0  0  0
    3.3680   -4.9090    0.8040 C   0  0  0  0  0  0  0  0  0  0  0  0
   -2.2600    2.3500   -0.2600 S   0  0  0  0  0  0  0  0  0  0  0  0
    2.7080   -4.8330    2.0280 C   0  0  0  0  0  0  0  0  0  0  0  0
    1.5770    2.6280   -0.7850 C   0  0  0  0  0  0  0  0  0  0  0  0
    1.6770   -0.8040   -0.6230 O   0  0  0  0  0  0  0  0  0  0  0  0
    1.1500   -3.2740    1.1050 C   0  0  0  0  0  0  0  0  0  0  0  0
    7.0760   -7.0100   -1.4790 C   0  0  0  0  0  0  0  0  0  0  0  0
    4.8260   -5.2340   -1.4780 O   0  0  0  0  0  0  0  0  0  0  0  0
    1.5930   -4.0050    2.1700 C   0  0  0  0  0  0  0  0  0  0  0  0
    2.7930    2.2640   -0.6000 O   0  0  0  0  0  0  0  0  0  0  0  0
    2.9100   -4.1620   -0.2800 C   0  0  0  0  0  0  0  0  0  0  0  0
    1.7960   -3.3330   -0.1380 C   0  0  0  0  0  0  0  0  0  0  0  0
    6.8340   -6.3960   -2.6480 F   0  0  0  0  0  0  0  0  0  0  0  0
    1.0820    3.7580   -0.4350 O   0  5  0  0  0  0  0  0  0  0  0  0
    3.2360   -5.6150    3.0460 O   0  0  0  0  0  0  0  0  0  0  0  0
    6.5800   -7.4540    0.8320 C   0  0  0  0  0  0  0  0  0  0  0  0
    8.1610   -7.8850   -1.4230 C   0  0  0  0  0  0  0  0  0  0  0  0
    2.5910   -5.5630    4.3120 C   0  0  0  0  0  0  0  0  0  0  0  0
    7.6650   -8.3320    0.8940 C   0  0  0  0  0  0  0  0  0  0  0  0
    8.4550   -8.5480   -0.2340 C   0  0  0  0  0  0  0  0  0  0  0  0
   -0.8190   -2.7550    1.9140 H   0  0  0  0  0  0  0  0  0  0  0  0
    1.2580    1.0630   -2.2110 H   0  0  0  0  0  0  0  0  0  0  0  0
   -0.0800    2.2300   -2.0830 H   0  0  0  0  0  0  0  0  0  0  0  0
    1.0820   -3.9430    3.1200 H   0  0  0  0  0  0  0  0  0  0  0  0
    3.4180   -4.2250   -1.2310 H   0  0  0  0  0  0  0  0  0  0  0  0
    1.4380   -2.7470   -0.9710 H   0  0  0  0  0  0  0  0  0  0  0  0
    5.9680   -7.2870    1.7060 H   0  0  0  0  0  0  0  0  0  0  0  0
    8.7710   -8.0480   -2.2990 H   0  0  0  0  0  0  0  0  0  0  0  0
    3.1080   -6.2210    5.0100 H   0  0  0  0  0  0  0  0  0  0  0  0
    1.5560   -5.8870    4.2060 H   0  0  0  0  0  0  0  0  0  0  0  0
    2.6150   -4.5410    4.6900 H   0  0  0  0  0  0  0  0  0  0  0  0
    7.8920   -8.8440    1.8170 H   0  0  0  0  0  0  0  0  0  0  0  0
    9.2930   -9.2280   -0.1860 H   0  0  0  0  0  0  0  0  0  0  0  0
  1  2  1  0  0  0  0
  1  3  1  0  0  0  0
  1 10  1  0  0  0  0
  2  5  1  0  0  0  0
  2 12  2  0  0  0  0
  3  4  1  0  0  0  0
  3 15  2  0  0  0  0
  4  5  1  0  0  0  0
  4  8  2  0  0  0  0
  6  7  1  0  0  0  0
  6  9  1  0  0  0  0
  6 18  2  0  0  0  0
  7 17  1  0  0  0  0
  7 26  2  0  0  0  0
  8 16  1  0  0  0  0
  8 31  1  0  0  0  0
  9 11  1  0  0  0  0
 10 14  1  0  0  0  0
 10 32  1  0  0  0  0
 10 33  1  0  0  0  0
 11 13  1  0  0  0  0
 11 21  2  0  0  0  0
 13 19  2  0  0  0  0
 13 25  1  0  0  0  0
 14 20  2  0  0  0  0
 14 24  1  0  0  0  0
 16 19  1  0  0  0  0
 16 22  2  0  0  0  0
 17 23  1  0  0  0  0
 17 27  2  0  0  0  0
 19 34  1  0  0  0  0
 21 22  1  0  0  0  0
 21 35  1  0  0  0  0
 22 36  1  0  0  0  0
 25 28  1  0  0  0  0
 26 29  1  0  0  0  0
 26 37  1  0  0  0  0
 27 30  1  0  0  0  0
 27 38  1  0  0  0  0
 28 39  1  0  0  0  0
 28 40  1  0  0  0  0
 28 41  1  0  0  0  0
 29 30  2  0  0  0  0
 29 42  1  0  0  0  0
 30 43  1  0  0  0  0
M  CHG  1  24  -1
M  END
>  <$CLUSTER>
490

>  <INDEX>
320729

$$$$
Labotest LT00723669
  MOE2020           3D

 37 38  0  0  0  0  0  0  0  0999 V2000
    0.3540   -0.0500   -0.1140 C   0  0  0  0  0  0  0  0  0  0  0  0
    1.6380    0.6390   -0.3530 C   0  0  0  0  0  0  0  0  0  0  0  0
    3.7660    1.4670   -2.7200 C   0  0  0  0  0  0  0  0  0  0  0  0
    2.4520    0.0760   -1.3100 N   0  0  0  0  0  0  0  0  0  0  0  0
    3.6660    0.6200   -1.6410 N   0  0  0  0  0  0  0  0  0  0  0  0
   -0.8170    0.6800    0.1160 C   0  0  0  0  0  0  0  0  0  0  0  0
    1.9290    1.6520    0.2750 O   0  0  0  0  0  0  0  0  0  0  0  0
    2.8400    1.7770   -3.4700 O   0  0  0  0  0  0  0  0  0  0  0  0
    5.1680    1.9820   -2.9240 C   0  0  0  0  0  0  0  0  0  0  0  0
   -0.7930    2.0480    0.0780 O   0  0  0  0  0  0  0  0  0  0  0  0
    0.3090   -1.4490   -0.0840 C   0  0  0  0  0  0  0  0  0  0  0  0
   -2.0240    0.0220    0.3640 C   0  0  0  0  0  0  0  0  0  0  0  0
    6.0990    0.8740   -3.4360 C   0  0  0  0  0  0  0  0  0  0  0  0
    5.2080    3.1760   -3.8890 C   0  0  0  0  0  0  0  0  0  0  0  0
   -0.8990   -2.1060    0.1630 C   0  0  0  0  0  0  0  0  0  0  0  0
   -2.0630   -1.3720    0.3860 C   0  0  0  0  0  0  0  0  0  0  0  0
    6.6160    3.6800   -4.1470 C   0  0  0  0  0  0  0  0  0  0  0  0
    7.5180    1.3660   -3.6950 C   0  0  0  0  0  0  0  0  0  0  0  0
    7.5260    2.5610   -4.6440 C   0  0  0  0  0  0  0  0  0  0  0  0
    2.1460   -0.7630   -1.7820 H   0  0  0  0  0  0  0  0  0  0  0  0
    4.4860    0.3990   -1.0930 H   0  0  0  0  0  0  0  0  0  0  0  0
    5.5190    2.3190   -1.9490 H   0  0  0  0  0  0  0  0  0  0  0  0
   -1.6400    2.4730    0.2300 H   0  0  0  0  0  0  0  0  0  0  0  0
    1.2090   -2.0210   -0.2520 H   0  0  0  0  0  0  0  0  0  0  0  0
   -2.9250    0.5910    0.5380 H   0  0  0  0  0  0  0  0  0  0  0  0
    5.6920    0.4800   -4.3670 H   0  0  0  0  0  0  0  0  0  0  0  0
    6.1370    0.0790   -2.6910 H   0  0  0  0  0  0  0  0  0  0  0  0
    4.6210    3.9890   -3.4610 H   0  0  0  0  0  0  0  0  0  0  0  0
    4.7680    2.8710   -4.8390 H   0  0  0  0  0  0  0  0  0  0  0  0
   -0.9310   -3.1850    0.1810 H   0  0  0  0  0  0  0  0  0  0  0  0
   -2.9950   -1.8830    0.5760 H   0  0  0  0  0  0  0  0  0  0  0  0
    7.0240    4.0830   -3.2200 H   0  0  0  0  0  0  0  0  0  0  0  0
    6.5780    4.4670   -4.9000 H   0  0  0  0  0  0  0  0  0  0  0  0
    8.0990    0.5570   -4.1380 H   0  0  0  0  0  0  0  0  0  0  0  0
    7.9700    1.6620   -2.7480 H   0  0  0  0  0  0  0  0  0  0  0  0
    8.5440    2.9420   -4.7240 H   0  0  0  0  0  0  0  0  0  0  0  0
    7.1820    2.2350   -5.6260 H   0  0  0  0  0  0  0  0  0  0  0  0
  1  2  1  0  0  0  0
  1  6  2  0  0  0  0
  1 11  1  0  0  0  0
  2  4  1  0  0  0  0
  2  7  2  0  0  0  0
  3  5  1  0  0  0  0
  3  8  2  0  0  0  0
  3  9  1  0  0  0  0
  4  5  1  0  0  0  0
  4 20  1  0  0  0  0
  5 21  1  0  0  0  0
  6 10  1  0  0  0  0
  6 12  1  0  0  0  0
  9 13  1  0  0  0  0
  9 14  1  0  0  0  0
  9 22  1  0  0  0  0
 10 23  1  0  0  0  0
 11 15  2  0  0  0  0
 11 24  1  0  0  0  0
 12 16  2  0  0  0  0
 12 25  1  0  0  0  0
 13 18  1  0  0  0  0
 13 26  1  0  0  0  0
 13 27  1  0  0  0  0
 14 17  1  0  0  0  0
 14 28  1  0  0  0  0
 14 29  1  0  0  0  0
 15 16  1  0  0  0  0
 15 30  1  0  0  0  0
 16 31  1  0  0  0  0
 17 19  1  0  0  0  0
 17 32  1  0  0  0  0
 17 33  1  0  0  0  0
 18 19  1  0  0  0  0
 18 34  1  0  0  0  0
 18 35  1  0  0  0  0
 19 36  1  0  0  0  0
 19 37  1  0  0  0  0
M  END
>  <$CLUSTER>
491

>  <INDEX>
320852

$$$$
Chem T&I NSB 0059653
  MOE2020           3D

 47 50  0  0  0  0  0  0  0  0999 V2000
   -0.1260   -2.0910    1.8590 C   0  0  0  0  0  0  0  0  0  0  0  0
    0.3140   -3.4750    2.1000 C   0  0  0  0  0  0  0  0  0  0  0  0
   -0.9330    0.5030    1.2240 N   0  0  0  0  0  0  0  0  0  0  0  0
    0.2440    0.5070   -0.8240 C   0  0  0  0  0  0  0  0  0  0  0  0
   -0.1320   -0.2040    0.3880 C   0  0  0  0  0  0  0  0  0  0  0  0
    1.6500   -3.6950    2.0010 N   0  0  0  0  0  0  0  0  0  0  0  0
    0.2920   -1.5000    0.6690 C   0  0  0  0  0  0  0  0  0  0  0  0
    1.0510   -0.1610   -1.7020 O   0  0  0  0  0  0  0  0  0  0  0  0
   -0.9460   -1.3860    2.7310 C   0  0  0  0  0  0  0  0  0  0  0  0
   -1.3180   -0.1030    2.3700 C   0  0  0  0  0  0  0  0  0  0  0  0
   -0.0380    1.7650   -1.3220 C   0  0  0  0  0  0  0  0  0  0  0  0
    1.2780    0.6710   -2.7510 C   0  0  0  0  0  0  0  0  0  0  0  0
    0.6310    1.8690   -2.5650 C   0  0  0  0  0  0  0  0  0  0  0  0
   -0.4950   -4.3570    2.3680 O   0  0  0  0  0  0  0  0  0  0  0  0
    2.2120   -5.0540    2.2240 C   0  0  0  0  0  0  0  0  0  0  0  0
    2.6900   -2.6960    1.6840 C   0  0  0  0  0  0  0  0  0  0  0  0
    3.2350   -5.0240    3.3580 C   0  0  0  0  0  0  0  0  0  0  0  0
    3.7240   -2.6240    2.8090 C   0  0  0  0  0  0  0  0  0  0  0  0
    4.3430   -3.9940    3.1110 C   0  0  0  0  0  0  0  0  0  0  0  0
   -1.4030   -1.9100    3.9900 C   0  0  0  0  0  0  0  0  0  0  0  0
   -2.1470    0.6490    3.2350 C   0  0  0  0  0  0  0  0  0  0  0  0
    2.0840    0.2700   -3.8390 C   0  0  0  0  0  0  0  0  0  0  0  0
    5.2960   -3.9160    4.3020 C   0  0  0  0  0  0  0  0  0  0  0  0
   -2.2180   -1.1530    4.8280 C   0  0  0  0  0  0  0  0  0  0  0  0
   -2.5930    0.1300    4.4490 C   0  0  0  0  0  0  0  0  0  0  0  0
    0.9300   -2.0340   -0.0190 H   0  0  0  0  0  0  0  0  0  0  0  0
   -0.6500    2.5220   -0.8540 H   0  0  0  0  0  0  0  0  0  0  0  0
    0.6330    2.7180   -3.2320 H   0  0  0  0  0  0  0  0  0  0  0  0
    2.6980   -5.3970    1.3100 H   0  0  0  0  0  0  0  0  0  0  0  0
    1.4050   -5.7390    2.4850 H   0  0  0  0  0  0  0  0  0  0  0  0
    2.2230   -1.7180    1.5630 H   0  0  0  0  0  0  0  0  0  0  0  0
    3.1880   -2.9790    0.7570 H   0  0  0  0  0  0  0  0  0  0  0  0
    3.6880   -6.0110    3.4490 H   0  0  0  0  0  0  0  0  0  0  0  0
    2.7230   -4.7720    4.2870 H   0  0  0  0  0  0  0  0  0  0  0  0
    3.2370   -2.2520    3.7100 H   0  0  0  0  0  0  0  0  0  0  0  0
    4.5170   -1.9370    2.5140 H   0  0  0  0  0  0  0  0  0  0  0  0
    4.9270   -4.3110    2.2470 H   0  0  0  0  0  0  0  0  0  0  0  0
   -1.1100   -2.9050    4.2900 H   0  0  0  0  0  0  0  0  0  0  0  0
   -2.4410    1.6480    2.9480 H   0  0  0  0  0  0  0  0  0  0  0  0
    2.4440   -0.7450   -3.6700 H   0  0  0  0  0  0  0  0  0  0  0  0
    2.9340    0.9470   -3.9310 H   0  0  0  0  0  0  0  0  0  0  0  0
    1.4960    0.2990   -4.7570 H   0  0  0  0  0  0  0  0  0  0  0  0
    4.7450   -3.6010    5.1880 H   0  0  0  0  0  0  0  0  0  0  0  0
    6.0850   -3.1950    4.0890 H   0  0  0  0  0  0  0  0  0  0  0  0
    5.7380   -4.8970    4.4780 H   0  0  0  0  0  0  0  0  0  0  0  0
   -2.5570   -1.5620    5.7680 H   0  0  0  0  0  0  0  0  0  0  0  0
   -3.2270    0.7220    5.0920 H   0  0  0  0  0  0  0  0  0  0  0  0
  1  2  1  0  0  0  0
  1  7  2  0  0  0  0
  1  9  1  0  0  0  0
  2  6  1  0  0  0  0
  2 14  2  0  0  0  0
  3  5  2  0  0  0  0
  3 10  1  0  0  0  0
  4  5  1  0  0  0  0
  4  8  1  0  0  0  0
  4 11  2  0  0  0  0
  5  7  1  0  0  0  0
  6 15  1  0  0  0  0
  6 16  1  0  0  0  0
  7 26  1  0  0  0  0
  8 12  1  0  0  0  0
  9 10  2  0  0  0  0
  9 20  1  0  0  0  0
 10 21  1  0  0  0  0
 11 13  1  0  0  0  0
 11 27  1  0  0  0  0
 12 13  2  0  0  0  0
 12 22  1  0  0  0  0
 13 28  1  0  0  0  0
 15 17  1  0  0  0  0
 15 29  1  0  0  0  0
 15 30  1  0  0  0  0
 16 18  1  0  0  0  0
 16 31  1  0  0  0  0
 16 32  1  0  0  0  0
 17 19  1  0  0  0  0
 17 33  1  0  0  0  0
 17 34  1  0  0  0  0
 18 19  1  0  0  0  0
 18 35  1  0  0  0  0
 18 36  1  0  0  0  0
 19 23  1  0  0  0  0
 19 37  1  0  0  0  0
 20 24  2  0  0  0  0
 20 38  1  0  0  0  0
 21 25  2  0  0  0  0
 21 39  1  0  0  0  0
 22 40  1  0  0  0  0
 22 41  1  0  0  0  0
 22 42  1  0  0  0  0
 23 43  1  0  0  0  0
 23 44  1  0  0  0  0
 23 45  1  0  0  0  0
 24 25  1  0  0  0  0
 24 46  1  0  0  0  0
 25 47  1  0  0  0  0
M  END
>  <$CLUSTER>
492

>  <INDEX>
573123

$$$$
Bionet 6W-0844
  MOE2020           3D

 42 43  0  0  0  0  0  0  0  0999 V2000
    0.5110    0.3500    0.0410 C   0  0  0  0  0  0  0  0  0  0  0  0
   -1.1570  -13.2440    3.1260 C   0  0  0  0  0  0  0  0  0  0  0  0
   -0.6720   -0.5690   -0.0670 C   0  0  0  0  0  0  0  0  0  0  0  0
   -1.0760  -11.1110    2.0540 N   0  0  0  0  0  0  0  0  0  0  0  0
   -1.4160   -6.8380    1.9820 C   0  0  0  0  0  0  0  0  0  0  0  0
   -1.4770  -12.7560    4.6560 S   0  0  0  0  0  0  0  0  0  0  0  0
   -1.4620   -6.2130    0.6980 C   0  0  0  0  0  0  0  0  0  0  0  0
   -0.9720  -12.4500    1.9150 N   0  0  0  0  0  0  0  0  0  0  0  0
   -1.5750   -4.7970    0.7780 O   0  0  0  0  0  0  0  0  0  0  0  0
   -0.5740   -1.9010   -0.2360 C   0  0  0  0  0  0  0  0  0  0  0  0
   -1.3060   -8.2320    2.0490 C   0  0  0  0  0  0  0  0  0  0  0  0
    0.5260    1.0200    1.2260 F   0  0  0  0  0  0  0  0  0  0  0  0
    0.5110    1.2930   -0.9410 F   0  0  0  0  0  0  0  0  0  0  0  0
    1.7040   -0.3010   -0.0500 F   0  0  0  0  0  0  0  0  0  0  0  0
   -1.3970   -6.9760   -0.4410 C   0  0  0  0  0  0  0  0  0  0  0  0
   -1.0230  -14.5970    2.8370 N   0  0  0  0  0  0  0  0  0  0  0  0
   -1.1250  -10.4470    0.9400 C   0  0  0  0  0  0  0  0  0  0  0  0
   -1.2410   -8.9900    0.8800 C   0  0  0  0  0  0  0  0  0  0  0  0
   -1.7380   -2.7030   -0.3380 C   0  0  0  0  0  0  0  0  0  0  0  0
   -1.6190   -4.1900   -0.5040 C   0  0  0  0  0  0  0  0  0  0  0  0
   -1.2870   -8.3640   -0.3610 C   0  0  0  0  0  0  0  0  0  0  0  0
   -1.4860   -6.0080    3.0740 O   0  0  0  0  0  0  0  0  0  0  0  0
   -2.0060    0.1090    0.0270 C   0  0  0  0  0  0  0  0  0  0  0  0
   -3.1080   -0.7160   -0.0680 C   0  0  0  0  0  0  0  0  0  0  0  0
   -2.9980   -2.0970   -0.2430 C   0  0  0  0  0  0  0  0  0  0  0  0
   -1.4430   -6.6150    4.3600 C   0  0  0  0  0  0  0  0  0  0  0  0
   -0.7770  -12.8790    1.0220 H   0  0  0  0  0  0  0  0  0  0  0  0
    0.4010   -2.3630   -0.2940 H   0  0  0  0  0  0  0  0  0  0  0  0
   -1.2710   -8.7230    3.0100 H   0  0  0  0  0  0  0  0  0  0  0  0
   -1.4310   -6.4970   -1.4080 H   0  0  0  0  0  0  0  0  0  0  0  0
   -1.1230  -15.2830    3.5720 H   0  0  0  0  0  0  0  0  0  0  0  0
   -0.8260  -14.8940    1.8920 H   0  0  0  0  0  0  0  0  0  0  0  0
   -1.0780  -10.9970    0.0120 H   0  0  0  0  0  0  0  0  0  0  0  0
   -2.4800   -4.5660   -1.0570 H   0  0  0  0  0  0  0  0  0  0  0  0
   -0.7060   -4.4250   -1.0510 H   0  0  0  0  0  0  0  0  0  0  0  0
   -1.2370   -8.9540   -1.2640 H   0  0  0  0  0  0  0  0  0  0  0  0
   -2.0990    1.1770    0.1610 H   0  0  0  0  0  0  0  0  0  0  0  0
   -4.0930   -0.2770   -0.0050 H   0  0  0  0  0  0  0  0  0  0  0  0
   -3.8900   -2.7020   -0.3060 H   0  0  0  0  0  0  0  0  0  0  0  0
   -1.5070   -5.8440    5.1280 H   0  0  0  0  0  0  0  0  0  0  0  0
   -0.5070   -7.1630    4.4720 H   0  0  0  0  0  0  0  0  0  0  0  0
   -2.2820   -7.3030    4.4650 H   0  0  0  0  0  0  0  0  0  0  0  0
  1  3  1  0  0  0  0
  1 12  1  0  0  0  0
  1 13  1  0  0  0  0
  1 14  1  0  0  0  0
  2  6  2  0  0  0  0
  2  8  1  0  0  0  0
  2 16  1  0  0  0  0
  3 10  2  0  0  0  0
  3 23  1  0  0  0  0
  4  8  1  0  0  0  0
  4 17  2  0  0  0  0
  5  7  2  0  0  0  0
  5 11  1  0  0  0  0
  5 22  1  0  0  0  0
  7  9  1  0  0  0  0
  7 15  1  0  0  0  0
  8 27  1  0  0  0  0
  9 20  1  0  0  0  0
 10 19  1  0  0  0  0
 10 28  1  0  0  0  0
 11 18  2  0  0  0  0
 11 29  1  0  0  0  0
 15 21  2  0  0  0  0
 15 30  1  0  0  0  0
 16 31  1  0  0  0  0
 16 32  1  0  0  0  0
 17 18  1  0  0  0  0
 17 33  1  0  0  0  0
 18 21  1  0  0  0  0
 19 20  1  0  0  0  0
 19 25  2  0  0  0  0
 20 34  1  0  0  0  0
 20 35  1  0  0  0  0
 21 36  1  0  0  0  0
 22 26  1  0  0  0  0
 23 24  2  0  0  0  0
 23 37  1  0  0  0  0
 24 25  1  0  0  0  0
 24 38  1  0  0  0  0
 25 39  1  0  0  0  0
 26 40  1  0  0  0  0
 26 41  1  0  0  0  0
 26 42  1  0  0  0  0
M  END
>  <$CLUSTER>
493

>  <INDEX>
72105

$$$$
Labotest LT01595129
  MOE2020           3D

 41 42  0  0  0  0  0  0  0  0999 V2000
    0.5110    0.3500    0.0410 C   0  0  0  0  0  0  0  0  0  0  0  0
   -2.4920   -5.0960   -0.6240 C   0  0  0  0  0  0  0  0  0  0  0  0
   -0.6720   -0.5690   -0.0670 C   0  0  0  0  0  0  0  0  0  0  0  0
   -1.5300   -4.0980   -0.5050 N   0  0  0  0  0  0  0  0  0  0  0  0
   -1.8690   -7.3890   -3.2150 N   0  3  0  0  0  0  0  0  0  0  0  0
   -0.5740   -1.9010   -0.2360 C   0  0  0  0  0  0  0  0  0  0  0  0
   -3.7130   -4.9630   -0.5990 O   0  0  0  0  0  0  0  0  0  0  0  0
   -1.7370   -2.7110   -0.3300 C   0  0  0  0  0  0  0  0  0  0  0  0
   -1.9050   -6.3400   -0.7850 N   0  0  0  0  0  0  0  0  0  0  0  0
    0.5260    1.0200    1.2260 F   0  0  0  0  0  0  0  0  0  0  0  0
    0.5110    1.2930   -0.9410 F   0  0  0  0  0  0  0  0  0  0  0  0
    1.7040   -0.3010   -0.0500 F   0  0  0  0  0  0  0  0  0  0  0  0
   -0.6760   -6.0640   -5.5350 O   0  0  0  0  0  0  0  0  0  0  0  0
   -2.6330   -7.5890   -0.9350 C   0  0  0  0  0  0  0  0  0  0  0  0
   -3.0180   -7.8350   -2.3820 C   0  0  0  0  0  0  0  0  0  0  0  0
   -2.0220   -7.9420   -4.6570 C   0  0  0  0  0  0  0  0  0  0  0  0
   -1.6530   -5.8980   -3.3030 C   0  0  0  0  0  0  0  0  0  0  0  0
   -2.0060    0.1090    0.0270 C   0  0  0  0  0  0  0  0  0  0  0  0
   -3.1030   -0.7220   -0.0700 C   0  0  0  0  0  0  0  0  0  0  0  0
   -2.9950   -2.1060   -0.2450 C   0  0  0  0  0  0  0  0  0  0  0  0
   -0.4840   -5.5460   -4.2010 C   0  0  0  0  0  0  0  0  0  0  0  0
   -0.8130   -7.5010   -5.5210 C   0  0  0  0  0  0  0  0  0  0  0  0
   -0.5680   -4.4010   -0.5490 H   0  0  0  0  0  0  0  0  0  0  0  0
   -1.0590   -7.7590   -2.7390 H   0  0  0  0  0  0  0  0  0  0  0  0
    0.4020   -2.3600   -0.3010 H   0  0  0  0  0  0  0  0  0  0  0  0
   -0.8960   -6.3820   -0.7990 H   0  0  0  0  0  0  0  0  0  0  0  0
   -3.5380   -7.5470   -0.3290 H   0  0  0  0  0  0  0  0  0  0  0  0
   -2.0040   -8.4100   -0.5910 H   0  0  0  0  0  0  0  0  0  0  0  0
   -3.2090   -8.8960   -2.5440 H   0  0  0  0  0  0  0  0  0  0  0  0
   -3.9100   -7.2620   -2.6350 H   0  0  0  0  0  0  0  0  0  0  0  0
   -2.9410   -7.5550   -5.0970 H   0  0  0  0  0  0  0  0  0  0  0  0
   -2.0650   -9.0310   -4.6240 H   0  0  0  0  0  0  0  0  0  0  0  0
   -1.4580   -5.5110   -2.3030 H   0  0  0  0  0  0  0  0  0  0  0  0
   -2.5550   -5.4350   -3.7020 H   0  0  0  0  0  0  0  0  0  0  0  0
   -2.1020    1.1760    0.1620 H   0  0  0  0  0  0  0  0  0  0  0  0
   -4.0890   -0.2850   -0.0080 H   0  0  0  0  0  0  0  0  0  0  0  0
   -3.8880   -2.7100   -0.3150 H   0  0  0  0  0  0  0  0  0  0  0  0
   -0.3880   -4.4610   -4.2510 H   0  0  0  0  0  0  0  0  0  0  0  0
    0.4270   -5.9720   -3.7820 H   0  0  0  0  0  0  0  0  0  0  0  0
    0.0960   -7.9410   -5.1110 H   0  0  0  0  0  0  0  0  0  0  0  0
   -0.9580   -7.8540   -6.5420 H   0  0  0  0  0  0  0  0  0  0  0  0
  1  3  1  0  0  0  0
  1 10  1  0  0  0  0
  1 11  1  0  0  0  0
  1 12  1  0  0  0  0
  2  4  1  0  0  0  0
  2  7  2  0  0  0  0
  2  9  1  0  0  0  0
  3  6  2  0  0  0  0
  3 18  1  0  0  0  0
  4  8  1  0  0  0  0
  4 23  1  0  0  0  0
  5 15  1  0  0  0  0
  5 16  1  0  0  0  0
  5 17  1  0  0  0  0
  5 24  1  0  0  0  0
  6  8  1  0  0  0  0
  6 25  1  0  0  0  0
  8 20  2  0  0  0  0
  9 14  1  0  0  0  0
  9 26  1  0  0  0  0
 13 21  1  0  0  0  0
 13 22  1  0  0  0  0
 14 15  1  0  0  0  0
 14 27  1  0  0  0  0
 14 28  1  0  0  0  0
 15 29  1  0  0  0  0
 15 30  1  0  0  0  0
 16 22  1  0  0  0  0
 16 31  1  0  0  0  0
 16 32  1  0  0  0  0
 17 21  1  0  0  0  0
 17 33  1  0  0  0  0
 17 34  1  0  0  0  0
 18 19  2  0  0  0  0
 18 35  1  0  0  0  0
 19 20  1  0  0  0  0
 19 36  1  0  0  0  0
 20 37  1  0  0  0  0
 21 38  1  0  0  0  0
 21 39  1  0  0  0  0
 22 40  1  0  0  0  0
 22 41  1  0  0  0  0
M  CHG  1   5   1
M  END
>  <$CLUSTER>
494

>  <INDEX>
323369

$$$$
Chembridge 7458021
  MOE2020           3D

 34 36  0  0  0  0  0  0  0  0999 V2000
    1.1000   -0.1910   -1.7790 O   0  0  0  0  0  0  0  0  0  0  0  0
    0.3010    0.5180   -0.9170 C   0  0  0  0  0  0  0  0  0  0  0  0
    0.0240    1.7260   -1.3700 N   0  0  0  0  0  0  0  0  0  0  0  0
    1.2750    0.7040   -2.7880 C   0  0  0  0  0  0  0  0  0  0  0  0
    0.6600    1.8450   -2.5900 N   0  0  0  0  0  0  0  0  0  0  0  0
   -0.1060   -0.1370    0.3170 C   0  0  0  0  0  0  0  0  0  0  0  0
    2.2430    0.2750   -4.1700 S   0  0  0  0  0  0  0  0  0  0  0  0
   -0.9230    0.5470    1.2300 C   0  0  0  0  0  0  0  0  0  0  0  0
    0.2960   -1.4450    0.6270 C   0  0  0  0  0  0  0  0  0  0  0  0
    2.1360    1.7840   -5.1580 C   0  0  0  0  0  0  0  0  0  0  0  0
    4.3410    5.0470   -3.3690 C   0  0  0  0  0  0  0  0  0  0  0  0
    2.9100    2.9450   -4.5390 C   0  0  0  0  0  0  0  0  0  0  0  0
   -1.3270   -0.0610    2.4210 C   0  0  0  0  0  0  0  0  0  0  0  0
   -0.1100   -2.0510    1.8200 C   0  0  0  0  0  0  0  0  0  0  0  0
   -0.9210   -1.3590    2.7160 C   0  0  0  0  0  0  0  0  0  0  0  0
    5.2680    6.4480   -2.5930 Br  0  0  0  0  0  0  0  0  0  0  0  0
    3.0110    4.8280   -3.0160 C   0  0  0  0  0  0  0  0  0  0  0  0
    4.9610    4.2140   -4.3000 C   0  0  0  0  0  0  0  0  0  0  0  0
    2.2970    3.7770   -3.5940 C   0  0  0  0  0  0  0  0  0  0  0  0
    4.2500    3.1610   -4.8800 C   0  0  0  0  0  0  0  0  0  0  0  0
   -1.3550   -2.0060    3.9900 C   0  0  0  0  0  0  0  0  0  0  0  0
   -1.2430    1.5550    1.0090 H   0  0  0  0  0  0  0  0  0  0  0  0
    0.9250   -1.9890   -0.0620 H   0  0  0  0  0  0  0  0  0  0  0  0
    1.0880    2.0700   -5.2460 H   0  0  0  0  0  0  0  0  0  0  0  0
    2.5420    1.5820   -6.1490 H   0  0  0  0  0  0  0  0  0  0  0  0
   -1.9560    0.4780    3.1140 H   0  0  0  0  0  0  0  0  0  0  0  0
    0.2060   -3.0580    2.0470 H   0  0  0  0  0  0  0  0  0  0  0  0
    2.5320    5.4730   -2.2940 H   0  0  0  0  0  0  0  0  0  0  0  0
    5.9920    4.3830   -4.5730 H   0  0  0  0  0  0  0  0  0  0  0  0
    1.2690    3.6050   -3.3120 H   0  0  0  0  0  0  0  0  0  0  0  0
    4.7360    2.5120   -5.5940 H   0  0  0  0  0  0  0  0  0  0  0  0
   -1.9790   -1.3140    4.5550 H   0  0  0  0  0  0  0  0  0  0  0  0
   -0.4780   -2.2690    4.5810 H   0  0  0  0  0  0  0  0  0  0  0  0
   -1.9250   -2.9070    3.7640 H   0  0  0  0  0  0  0  0  0  0  0  0
  1  2  1  0  0  0  0
  1  4  1  0  0  0  0
  2  3  2  0  0  0  0
  2  6  1  0  0  0  0
  3  5  1  0  0  0  0
  4  5  2  0  0  0  0
  4  7  1  0  0  0  0
  6  8  2  0  0  0  0
  6  9  1  0  0  0  0
  7 10  1  0  0  0  0
  8 13  1  0  0  0  0
  8 22  1  0  0  0  0
  9 14  2  0  0  0  0
  9 23  1  0  0  0  0
 10 12  1  0  0  0  0
 10 24  1  0  0  0  0
 10 25  1  0  0  0  0
 11 16  1  0  0  0  0
 11 17  2  0  0  0  0
 11 18  1  0  0  0  0
 12 19  2  0  0  0  0
 12 20  1  0  0  0  0
 13 15  2  0  0  0  0
 13 26  1  0  0  0  0
 14 15  1  0  0  0  0
 14 27  1  0  0  0  0
 15 21  1  0  0  0  0
 17 19  1  0  0  0  0
 17 28  1  0  0  0  0
 18 20  2  0  0  0  0
 18 29  1  0  0  0  0
 19 30  1  0  0  0  0
 20 31  1  0  0  0  0
 21 32  1  0  0  0  0
 21 33  1  0  0  0  0
 21 34  1  0  0  0  0
M  END
>  <$CLUSTER>
495

>  <INDEX>
78703

$$$$
FCHC 22981
  MOE2020           3D

 45 46  0  0  1  0  0  0  0  0999 V2000
    1.2950   -0.1340   -0.2020 C   0  0  0  0  0  0  0  0  0  0  0  0
   -0.0320    0.3060   -0.2000 N   0  0  0  0  0  0  0  0  0  0  0  0
    1.5590   -1.3020    0.4370 N   0  0  0  0  0  0  0  0  0  0  0  0
   -1.0650   -0.2810    0.6990 C   0  0  3  0  0  0  0  0  0  0  0  0
   -2.0190    0.7580    1.3010 C   0  0  3  0  0  0  0  0  0  0  0  0
    2.5950    0.6530   -0.9210 S   0  0  0  0  0  0  0  0  0  0  0  0
    2.4890   -2.3060    0.6240 C   0  0  0  0  0  0  0  0  0  0  0  0
   -1.8510   -1.3810   -0.0180 C   0  0  0  0  0  0  0  0  0  0  0  0
   -3.0990    0.1510    2.1460 C   0  0  0  0  0  0  0  0  0  0  0  0
    2.3810   -3.2720    1.6590 C   0  0  0  0  0  0  0  0  0  0  0  0
   -4.9420   -1.5580    2.2880 C   0  0  0  0  0  0  0  0  0  0  0  0
   -6.2430   -1.5100    2.0460 C   0  0  0  0  0  0  0  0  0  0  0  0
   -3.8820   -0.9260    1.3880 C   0  0  3  0  0  0  0  0  0  0  0  0
   -2.9320   -1.9960    0.8350 C   0  0  0  0  0  0  0  0  0  0  0  0
   -1.2730    1.6830    2.1120 O   0  0  0  0  0  0  0  0  0  0  0  0
   -0.4820    1.3830   -1.0960 C   0  0  0  0  0  0  0  0  0  0  0  0
    3.5850   -2.3790   -0.2460 C   0  0  0  0  0  0  0  0  0  0  0  0
    1.2300   -3.2890    2.6340 C   0  0  0  0  0  0  0  0  0  0  0  0
    3.3830   -4.2510    1.7990 C   0  0  0  0  0  0  0  0  0  0  0  0
    4.5720   -3.3560   -0.0900 C   0  0  0  0  0  0  0  0  0  0  0  0
    4.4740   -4.2900    0.9350 C   0  0  0  0  0  0  0  0  0  0  0  0
    0.7530   -1.5270    1.0020 H   0  0  0  0  0  0  0  0  0  0  0  0
   -0.5200   -0.7160    1.5370 H   0  0  0  0  0  0  0  0  0  0  0  0
   -2.5000    1.2600    0.4610 H   0  0  0  0  0  0  0  0  0  0  0  0
   -1.1550   -2.1660   -0.3140 H   0  0  0  0  0  0  0  0  0  0  0  0
   -2.3140   -0.9520   -0.9070 H   0  0  0  0  0  0  0  0  0  0  0  0
   -3.7890    0.9370    2.4540 H   0  0  0  0  0  0  0  0  0  0  0  0
   -2.6440   -0.3000    3.0280 H   0  0  0  0  0  0  0  0  0  0  0  0
   -4.6100   -2.0760    3.1760 H   0  0  0  0  0  0  0  0  0  0  0  0
   -6.9370   -1.9800    2.7270 H   0  0  0  0  0  0  0  0  0  0  0  0
   -6.6100   -1.0010    1.1670 H   0  0  0  0  0  0  0  0  0  0  0  0
   -4.3890   -0.4520    0.5480 H   0  0  0  0  0  0  0  0  0  0  0  0
   -2.4690   -2.5250    1.6680 H   0  0  0  0  0  0  0  0  0  0  0  0
   -3.5040   -2.7000    0.2310 H   0  0  0  0  0  0  0  0  0  0  0  0
   -0.8760    1.1850    2.8300 H   0  0  0  0  0  0  0  0  0  0  0  0
    0.3580    1.7280   -1.6990 H   0  0  0  0  0  0  0  0  0  0  0  0
   -0.8680    2.2120   -0.5030 H   0  0  0  0  0  0  0  0  0  0  0  0
   -1.2690    1.0070   -1.7500 H   0  0  0  0  0  0  0  0  0  0  0  0
    3.6690   -1.6660   -1.0530 H   0  0  0  0  0  0  0  0  0  0  0  0
    0.5420   -2.4770    2.3980 H   0  0  0  0  0  0  0  0  0  0  0  0
    1.6100   -3.1610    3.6470 H   0  0  0  0  0  0  0  0  0  0  0  0
    0.7060   -4.2420    2.5610 H   0  0  0  0  0  0  0  0  0  0  0  0
    3.3040   -4.9830    2.5890 H   0  0  0  0  0  0  0  0  0  0  0  0
    5.4130   -3.3850   -0.7670 H   0  0  0  0  0  0  0  0  0  0  0  0
    5.2400   -5.0410    1.0600 H   0  0  0  0  0  0  0  0  0  0  0  0
  1  2  1  0  0  0  0
  1  3  1  0  0  0  0
  1  6  2  0  0  0  0
  2  4  1  0  0  0  0
  2 16  1  0  0  0  0
  3  7  1  0  0  0  0
  3 22  1  0  0  0  0
  4  5  1  0  0  0  0
  4  8  1  0  0  0  0
  4 23  1  0  0  0  0
  5  9  1  0  0  0  0
  5 15  1  0  0  0  0
  5 24  1  0  0  0  0
  7 10  2  0  0  0  0
  7 17  1  0  0  0  0
  8 14  1  0  0  0  0
  8 25  1  0  0  0  0
  8 26  1  0  0  0  0
  9 13  1  0  0  0  0
  9 27  1  0  0  0  0
  9 28  1  0  0  0  0
 10 18  1  0  0  0  0
 10 19  1  0  0  0  0
 11 12  2  0  0  0  0
 11 13  1  0  0  0  0
 11 29  1  0  0  0  0
 12 30  1  0  0  0  0
 12 31  1  0  0  0  0
 13 14  1  0  0  0  0
 13 32  1  0  0  0  0
 14 33  1  0  0  0  0
 14 34  1  0  0  0  0
 15 35  1  0  0  0  0
 16 36  1  0  0  0  0
 16 37  1  0  0  0  0
 16 38  1  0  0  0  0
 17 20  2  0  0  0  0
 17 39  1  0  0  0  0
 18 40  1  0  0  0  0
 18 41  1  0  0  0  0
 18 42  1  0  0  0  0
 19 21  2  0  0  0  0
 19 43  1  0  0  0  0
 20 21  1  0  0  0  0
 20 44  1  0  0  0  0
 21 45  1  0  0  0  0
M  END
>  <$CLUSTER>
496

>  <INDEX>
229739

$$$$
Labotest LT02816962
  MOE2020           3D

 29 30  0  0  0  0  0  0  0  0999 V2000
   -0.0480   -0.2830   -0.1610 C   0  0  0  0  0  0  0  0  0  0  0  0
    0.3850    1.0830   -0.2320 C   0  0  0  0  0  0  0  0  0  0  0  0
   -0.8780   -0.7850    0.8380 N   0  0  0  0  0  0  0  0  0  0  0  0
   -1.3030   -2.1060    0.9150 C   0  0  0  0  0  0  0  0  0  0  0  0
    0.4460   -1.0080   -1.1750 N   0  0  0  0  0  0  0  0  0  0  0  0
    0.0700    2.1800    0.6720 C   0  0  0  0  0  0  0  0  0  0  0  0
    1.1760   -0.1340   -1.8770 N   0  0  0  0  0  0  0  0  0  0  0  0
    1.1760    1.1250   -1.3620 C   0  0  0  0  0  0  0  0  0  0  0  0
   -2.1190   -2.3120    2.0150 N   0  0  0  0  0  0  0  0  0  0  0  0
   -1.0210   -3.0130    0.1350 O   0  0  0  0  0  0  0  0  0  0  0  0
   -0.6510    2.0310    1.6560 O   0  0  0  0  0  0  0  0  0  0  0  0
    0.6320    3.4000    0.3560 N   0  0  0  0  0  0  0  0  0  0  0  0
   -2.7700   -3.4740    2.4840 C   0  0  0  0  0  0  0  0  0  0  0  0
   -4.1070   -5.7250    3.5040 C   0  0  0  0  0  0  0  0  0  0  0  0
   -4.9100   -7.0990    4.1070 Cl  0  0  0  0  0  0  0  0  0  0  0  0
   -3.5480   -3.3810    3.6490 C   0  0  0  0  0  0  0  0  0  0  0  0
   -2.6730   -4.7100    1.8370 C   0  0  0  0  0  0  0  0  0  0  0  0
   -4.2120   -4.5000    4.1570 C   0  0  0  0  0  0  0  0  0  0  0  0
   -3.3390   -5.8300    2.3470 C   0  0  0  0  0  0  0  0  0  0  0  0
   -1.1920   -0.1460    1.5550 H   0  0  0  0  0  0  0  0  0  0  0  0
    1.6820   -0.3860   -2.7140 H   0  0  0  0  0  0  0  0  0  0  0  0
    1.6930    1.9870   -1.7590 H   0  0  0  0  0  0  0  0  0  0  0  0
   -2.2750   -1.4890    2.5790 H   0  0  0  0  0  0  0  0  0  0  0  0
    0.4550    4.2040    0.9410 H   0  0  0  0  0  0  0  0  0  0  0  0
    1.2200    3.4890   -0.4600 H   0  0  0  0  0  0  0  0  0  0  0  0
   -3.6340   -2.4330    4.1590 H   0  0  0  0  0  0  0  0  0  0  0  0
   -2.0810   -4.8010    0.9390 H   0  0  0  0  0  0  0  0  0  0  0  0
   -4.8060   -4.4150    5.0550 H   0  0  0  0  0  0  0  0  0  0  0  0
   -3.2570   -6.7810    1.8410 H   0  0  0  0  0  0  0  0  0  0  0  0
  1  2  1  0  0  0  0
  1  3  1  0  0  0  0
  1  5  2  0  0  0  0
  2  6  1  0  0  0  0
  2  8  2  0  0  0  0
  3  4  1  0  0  0  0
  3 20  1  0  0  0  0
  4  9  1  0  0  0  0
  4 10  2  0  0  0  0
  5  7  1  0  0  0  0
  6 11  2  0  0  0  0
  6 12  1  0  0  0  0
  7  8  1  0  0  0  0
  7 21  1  0  0  0  0
  8 22  1  0  0  0  0
  9 13  1  0  0  0  0
  9 23  1  0  0  0  0
 12 24  1  0  0  0  0
 12 25  1  0  0  0  0
 13 16  2  0  0  0  0
 13 17  1  0  0  0  0
 14 15  1  0  0  0  0
 14 18  2  0  0  0  0
 14 19  1  0  0  0  0
 16 18  1  0  0  0  0
 16 26  1  0  0  0  0
 17 19  2  0  0  0  0
 17 27  1  0  0  0  0
 18 28  1  0  0  0  0
 19 29  1  0  0  0  0
M  END
>  <$CLUSTER>
497

>  <INDEX>
326618

$$$$
InterBioScreen STOCK2S-27175
  MOE2020           3D

 17 18  0  0  0  0  0  0  0  0999 V2000
   -1.2420   -1.2110   -0.5530 C   0  0  0  0  0  0  0  0  0  0  0  0
   -2.4290   -0.5100   -0.3280 C   0  0  0  0  0  0  0  0  0  0  0  0
    0.0020   -0.6530   -0.2650 C   0  0  0  0  0  0  0  0  0  0  0  0
   -2.3870    0.7780    0.1960 C   0  0  0  0  0  0  0  0  0  0  0  0
   -1.1580    1.3640    0.4950 C   0  0  0  0  0  0  0  0  0  0  0  0
    0.0340    0.6590    0.2690 C   0  0  0  0  0  0  0  0  0  0  0  0
    1.1320   -1.3670   -0.4970 N   0  0  0  0  0  0  0  0  0  0  0  0
   -3.6400   -1.0040   -0.5890 F   0  0  0  0  0  0  0  0  0  0  0  0
   -3.5610    1.3810    0.3820 F   0  0  0  0  0  0  0  0  0  0  0  0
    2.3210   -0.7810   -0.2000 C   0  0  0  0  0  0  0  0  0  0  0  0
    1.2830    1.2250    0.5600 C   0  0  0  0  0  0  0  0  0  0  0  0
    2.4450    0.4960    0.3230 C   0  0  0  0  0  0  0  0  0  0  0  0
   -1.2900   -2.2100   -0.9600 H   0  0  0  0  0  0  0  0  0  0  0  0
   -1.1230    2.3640    0.9020 H   0  0  0  0  0  0  0  0  0  0  0  0
    3.2240   -1.3440   -0.3830 H   0  0  0  0  0  0  0  0  0  0  0  0
    1.3440    2.2240    0.9670 H   0  0  0  0  0  0  0  0  0  0  0  0
    3.4170    0.9140    0.5410 H   0  0  0  0  0  0  0  0  0  0  0  0
  1  2  2  0  0  0  0
  1  3  1  0  0  0  0
  1 13  1  0  0  0  0
  2  4  1  0  0  0  0
  2  8  1  0  0  0  0
  3  6  1  0  0  0  0
  3  7  2  0  0  0  0
  4  5  2  0  0  0  0
  4  9  1  0  0  0  0
  5  6  1  0  0  0  0
  5 14  1  0  0  0  0
  6 11  2  0  0  0  0
  7 10  1  0  0  0  0
 10 12  2  0  0  0  0
 10 15  1  0  0  0  0
 11 12  1  0  0  0  0
 11 16  1  0  0  0  0
 12 17  1  0  0  0  0
M  END
>  <$CLUSTER>
498

>  <INDEX>
336565

$$$$
InterBioScreen STOCK1S-03657
  MOE2020           3D

 54 57  0  0  1  0  0  0  0  0999 V2000
    1.6130   -1.3980    1.4410 N   0  3  0  0  0  0  0  0  0  0  0  0
    0.0980   -1.3470   -0.4900 C   0  0  3  0  0  0  0  0  0  0  0  0
    1.8190   -0.1160    1.4500 C   0  0  0  0  0  0  0  0  0  0  0  0
    1.2480   -2.1020    0.1710 C   0  0  0  0  0  0  0  0  0  0  0  0
    1.6460    0.6500    0.1350 C   0  0  3  0  0  0  0  0  0  0  0  0
    0.5030    0.1220   -0.7790 C   0  0  3  0  0  0  0  0  0  0  0  0
   -0.2940   -2.0530   -1.7930 C   0  0  0  0  0  0  0  0  0  0  0  0
    2.2760    0.6450    2.6240 C   0  0  0  0  0  0  0  0  0  0  0  0
    0.4740   -2.7930   -2.4020 O   0  0  0  0  0  0  0  0  0  0  0  0
   -0.7030    1.0570   -0.7300 C   0  0  0  0  0  0  0  0  0  0  0  0
   -1.6270   -1.7900   -2.3790 C   0  0  0  0  0  0  0  0  0  0  0  0
    1.7020   -2.2650    2.6550 C   0  0  0  0  0  0  0  0  0  0  0  0
    2.9890    0.6880   -0.6130 C   0  0  0  0  0  0  0  0  0  0  0  0
    3.5650    0.4380    3.1220 C   0  0  0  0  0  0  0  0  0  0  0  0
    1.4290    1.5890    3.2060 C   0  0  0  0  0  0  0  0  0  0  0  0
   -1.0600    1.7970   -1.8690 C   0  0  0  0  0  0  0  0  0  0  0  0
   -1.4750    1.2030    0.4330 C   0  0  0  0  0  0  0  0  0  0  0  0
   -2.7710   -1.6950   -1.5850 C   0  0  0  0  0  0  0  0  0  0  0  0
   -1.7230   -1.6440   -3.7670 C   0  0  0  0  0  0  0  0  0  0  0  0
   -2.1650    2.6490   -1.8480 C   0  0  0  0  0  0  0  0  0  0  0  0
    1.8730    2.3210    4.3070 C   0  0  0  0  0  0  0  0  0  0  0  0
   -2.5800    2.0570    0.4530 C   0  0  0  0  0  0  0  0  0  0  0  0
    4.0010    1.1740    4.2230 C   0  0  0  0  0  0  0  0  0  0  0  0
   -2.9610   -1.3790   -4.3540 C   0  0  0  0  0  0  0  0  0  0  0  0
   -4.0060   -1.4290   -2.1790 C   0  0  0  0  0  0  0  0  0  0  0  0
   -2.9250    2.7780   -0.6880 C   0  0  0  0  0  0  0  0  0  0  0  0
    3.1560    2.1130    4.8160 C   0  0  0  0  0  0  0  0  0  0  0  0
   -4.1010   -1.2690   -3.5600 C   0  0  0  0  0  0  0  0  0  0  0  0
   -0.7550   -1.3380    0.1880 H   0  0  0  0  0  0  0  0  0  0  0  0
    0.9380   -3.1230    0.3930 H   0  0  0  0  0  0  0  0  0  0  0  0
    2.1080   -2.1210   -0.4990 H   0  0  0  0  0  0  0  0  0  0  0  0
    1.3340    1.6600    0.4020 H   0  0  0  0  0  0  0  0  0  0  0  0
    0.9010    0.1160   -1.7940 H   0  0  0  0  0  0  0  0  0  0  0  0
    1.4860   -3.2980    2.3810 H   0  0  0  0  0  0  0  0  0  0  0  0
    0.9780   -1.9270    3.3970 H   0  0  0  0  0  0  0  0  0  0  0  0
    2.7070   -2.2030    3.0730 H   0  0  0  0  0  0  0  0  0  0  0  0
    3.2890   -0.3270   -0.8730 H   0  0  0  0  0  0  0  0  0  0  0  0
    3.7480    1.1380    0.0260 H   0  0  0  0  0  0  0  0  0  0  0  0
    2.8820    1.2800   -1.5220 H   0  0  0  0  0  0  0  0  0  0  0  0
    4.2180   -0.2860    2.6580 H   0  0  0  0  0  0  0  0  0  0  0  0
    0.4380    1.7510    2.8070 H   0  0  0  0  0  0  0  0  0  0  0  0
   -0.4730    1.7060   -2.7710 H   0  0  0  0  0  0  0  0  0  0  0  0
   -1.2120    0.6490    1.3220 H   0  0  0  0  0  0  0  0  0  0  0  0
   -2.7010   -1.8270   -0.5150 H   0  0  0  0  0  0  0  0  0  0  0  0
   -0.8410   -1.7360   -4.3830 H   0  0  0  0  0  0  0  0  0  0  0  0
   -2.4310    3.2090   -2.7320 H   0  0  0  0  0  0  0  0  0  0  0  0
    1.2230    3.0500    4.7670 H   0  0  0  0  0  0  0  0  0  0  0  0
   -3.1670    2.1580    1.3540 H   0  0  0  0  0  0  0  0  0  0  0  0
    4.9940    1.0170    4.6170 H   0  0  0  0  0  0  0  0  0  0  0  0
   -3.0360   -1.2590   -5.4250 H   0  0  0  0  0  0  0  0  0  0  0  0
   -4.8910   -1.3470   -1.5660 H   0  0  0  0  0  0  0  0  0  0  0  0
   -3.7810    3.4360   -0.6730 H   0  0  0  0  0  0  0  0  0  0  0  0
    3.4950    2.6800    5.6700 H   0  0  0  0  0  0  0  0  0  0  0  0
   -5.0580   -1.0600   -4.0150 H   0  0  0  0  0  0  0  0  0  0  0  0
  1  3  2  0  0  0  0
  1  4  1  0  0  0  0
  1 12  1  0  0  0  0
  2  4  1  0  0  0  0
  2  6  1  0  0  0  0
  2  7  1  0  0  0  0
  2 29  1  0  0  0  0
  3  5  1  0  0  0  0
  3  8  1  0  0  0  0
  4 30  1  0  0  0  0
  4 31  1  0  0  0  0
  5  6  1  0  0  0  0
  5 13  1  0  0  0  0
  5 32  1  0  0  0  0
  6 10  1  0  0  0  0
  6 33  1  0  0  0  0
  7  9  2  0  0  0  0
  7 11  1  0  0  0  0
  8 14  1  0  0  0  0
  8 15  2  0  0  0  0
 10 16  2  0  0  0  0
 10 17  1  0  0  0  0
 11 18  1  0  0  0  0
 11 19  2  0  0  0  0
 12 34  1  0  0  0  0
 12 35  1  0  0  0  0
 12 36  1  0  0  0  0
 13 37  1  0  0  0  0
 13 38  1  0  0  0  0
 13 39  1  0  0  0  0
 14 23  2  0  0  0  0
 14 40  1  0  0  0  0
 15 21  1  0  0  0  0
 15 41  1  0  0  0  0
 16 20  1  0  0  0  0
 16 42  1  0  0  0  0
 17 22  2  0  0  0  0
 17 43  1  0  0  0  0
 18 25  2  0  0  0  0
 18 44  1  0  0  0  0
 19 24  1  0  0  0  0
 19 45  1  0  0  0  0
 20 26  2  0  0  0  0
 20 46  1  0  0  0  0
 21 27  2  0  0  0  0
 21 47  1  0  0  0  0
 22 26  1  0  0  0  0
 22 48  1  0  0  0  0
 23 27  1  0  0  0  0
 23 49  1  0  0  0  0
 24 28  2  0  0  0  0
 24 50  1  0  0  0  0
 25 28  1  0  0  0  0
 25 51  1  0  0  0  0
 26 52  1  0  0  0  0
 27 53  1  0  0  0  0
 28 54  1  0  0  0  0
M  CHG  1   1   1
M  END
>  <$CLUSTER>
499

>  <INDEX>
328488

$$$$
InterBioScreen STOCK1S-10133
  MOE2020           3D

 18 19  0  0  0  0  0  0  0  0999 V2000
    0.0020   -0.6530   -0.2650 C   0  0  0  0  0  0  0  0  0  0  0  0
   -1.2420   -1.2110   -0.5530 C   0  0  0  0  0  0  0  0  0  0  0  0
    1.1320   -1.3670   -0.4970 N   0  0  0  0  0  0  0  0  0  0  0  0
    0.0340    0.6590    0.2690 C   0  0  0  0  0  0  0  0  0  0  0  0
   -2.4290   -0.5100   -0.3280 C   0  0  0  0  0  0  0  0  0  0  0  0
   -1.1580    1.3640    0.4950 C   0  0  0  0  0  0  0  0  0  0  0  0
   -2.3870    0.7780    0.1960 C   0  0  0  0  0  0  0  0  0  0  0  0
   -3.6320   -1.0740   -0.6160 O   0  0  0  0  0  0  0  0  0  0  0  0
    2.3210   -0.7810   -0.2000 C   0  0  0  0  0  0  0  0  0  0  0  0
    1.2830    1.2250    0.5600 C   0  0  0  0  0  0  0  0  0  0  0  0
    2.4450    0.4960    0.3230 C   0  0  0  0  0  0  0  0  0  0  0  0
   -1.2900   -2.2100   -0.9600 H   0  0  0  0  0  0  0  0  0  0  0  0
   -1.1230    2.3640    0.9020 H   0  0  0  0  0  0  0  0  0  0  0  0
   -3.3030    1.3220    0.3710 H   0  0  0  0  0  0  0  0  0  0  0  0
   -4.3940   -0.5210   -0.4300 H   0  0  0  0  0  0  0  0  0  0  0  0
    3.2240   -1.3440   -0.3830 H   0  0  0  0  0  0  0  0  0  0  0  0
    1.3440    2.2240    0.9670 H   0  0  0  0  0  0  0  0  0  0  0  0
    3.4170    0.9140    0.5410 H   0  0  0  0  0  0  0  0  0  0  0  0
  1  2  2  0  0  0  0
  1  3  1  0  0  0  0
  1  4  1  0  0  0  0
  2  5  1  0  0  0  0
  2 12  1  0  0  0  0
  3  9  2  0  0  0  0
  4  6  2  0  0  0  0
  4 10  1  0  0  0  0
  5  7  2  0  0  0  0
  5  8  1  0  0  0  0
  6  7  1  0  0  0  0
  6 13  1  0  0  0  0
  7 14  1  0  0  0  0
  8 15  1  0  0  0  0
  9 11  1  0  0  0  0
  9 16  1  0  0  0  0
 10 11  2  0  0  0  0
 10 17  1  0  0  0  0
 11 18  1  0  0  0  0
M  END
>  <$CLUSTER>
500

>  <INDEX>
329138

$$$$
Chemdiv 2262-3116
  MOE2020           3D

 39 40  0  0  0  0  0  0  0  0999 V2000
   -0.7330    0.0250    0.1670 C   0  0  0  0  0  0  0  0  0  0  0  0
    0.5440   -0.0920    0.7480 C   0  0  0  0  0  0  0  0  0  0  0  0
   -1.9290    0.1850    1.0280 C   0  0  0  0  0  0  0  0  0  0  0  0
   -3.8100   -0.0570   -5.0230 C   0  0  0  0  0  0  0  0  0  0  0  0
   -0.8500   -0.0120   -1.2290 C   0  0  0  0  0  0  0  0  0  0  0  0
   -5.2860    0.1340   -5.3580 C   0  0  0  0  0  0  0  0  0  0  0  0
   -2.2970    0.0840   -3.1780 N   0  0  0  0  0  0  0  0  0  0  0  0
    1.6890   -0.2910   -0.0480 C   0  0  0  0  0  0  0  0  0  0  0  0
   -3.5720    0.2160   -3.6090 N   0  0  0  0  0  0  0  0  0  0  0  0
   -2.5210   -0.8720    1.4050 O   0  0  0  0  0  0  0  0  0  0  0  0
   -5.5450    0.4220   -6.7190 C   0  0  0  0  0  0  0  0  0  0  0  0
   -2.9980   -0.3850   -5.8460 O   0  0  0  0  0  0  0  0  0  0  0  0
    0.2900   -0.1780   -2.0240 C   0  0  0  0  0  0  0  0  0  0  0  0
    1.5510   -0.3220   -1.4420 C   0  0  0  0  0  0  0  0  0  0  0  0
   -2.1580    0.1180   -1.8890 C   0  0  0  0  0  0  0  0  0  0  0  0
   -2.3020    1.3690    1.2890 O   0  5  0  0  0  0  0  0  0  0  0  0
    0.6550   -0.0830    2.1340 O   0  0  0  0  0  0  0  0  0  0  0  0
   -6.8670    0.5820   -7.1390 C   0  0  0  0  0  0  0  0  0  0  0  0
   -7.2160    0.9500   -8.7650 Cl  0  0  0  0  0  0  0  0  0  0  0  0
    2.8930   -0.4540    0.6300 O   0  0  0  0  0  0  0  0  0  0  0  0
   -6.3140   -0.0250   -4.4700 C   0  0  0  0  0  0  0  0  0  0  0  0
   -7.6350    0.1360   -4.8970 C   0  0  0  0  0  0  0  0  0  0  0  0
   -7.9110    0.4410   -6.2280 C   0  0  0  0  0  0  0  0  0  0  0  0
    1.1090    1.2070    2.5800 C   0  0  0  0  0  0  0  0  0  0  0  0
    4.0590   -0.6850   -0.1700 C   0  0  0  0  0  0  0  0  0  0  0  0
   -4.3190    0.4890   -2.9860 H   0  0  0  0  0  0  0  0  0  0  0  0
   -4.7320    0.5170   -7.4230 H   0  0  0  0  0  0  0  0  0  0  0  0
    0.1930   -0.1950   -3.1000 H   0  0  0  0  0  0  0  0  0  0  0  0
    2.4210   -0.4570   -2.0670 H   0  0  0  0  0  0  0  0  0  0  0  0
   -3.0380    0.2470   -1.2760 H   0  0  0  0  0  0  0  0  0  0  0  0
   -6.1050   -0.2750   -3.4400 H   0  0  0  0  0  0  0  0  0  0  0  0
   -8.4450    0.0230   -4.1920 H   0  0  0  0  0  0  0  0  0  0  0  0
   -8.9330    0.5680   -6.5530 H   0  0  0  0  0  0  0  0  0  0  0  0
    1.1940    1.2070    3.6670 H   0  0  0  0  0  0  0  0  0  0  0  0
    0.3950    1.9700    2.2710 H   0  0  0  0  0  0  0  0  0  0  0  0
    2.0830    1.4220    2.1400 H   0  0  0  0  0  0  0  0  0  0  0  0
    4.9280   -0.7950    0.4780 H   0  0  0  0  0  0  0  0  0  0  0  0
    4.2110    0.1590   -0.8420 H   0  0  0  0  0  0  0  0  0  0  0  0
    3.9240   -1.5950   -0.7540 H   0  0  0  0  0  0  0  0  0  0  0  0
  1  2  2  0  0  0  0
  1  3  1  0  0  0  0
  1  5  1  0  0  0  0
  2  8  1  0  0  0  0
  2 17  1  0  0  0  0
  3 10  2  0  0  0  0
  3 16  1  0  0  0  0
  4  6  1  0  0  0  0
  4  9  1  0  0  0  0
  4 12  2  0  0  0  0
  5 13  2  0  0  0  0
  5 15  1  0  0  0  0
  6 11  2  0  0  0  0
  6 21  1  0  0  0  0
  7  9  1  0  0  0  0
  7 15  2  0  0  0  0
  8 14  2  0  0  0  0
  8 20  1  0  0  0  0
  9 26  1  0  0  0  0
 11 18  1  0  0  0  0
 11 27  1  0  0  0  0
 13 14  1  0  0  0  0
 13 28  1  0  0  0  0
 14 29  1  0  0  0  0
 15 30  1  0  0  0  0
 17 24  1  0  0  0  0
 18 19  1  0  0  0  0
 18 23  2  0  0  0  0
 20 25  1  0  0  0  0
 21 22  2  0  0  0  0
 21 31  1  0  0  0  0
 22 23  1  0  0  0  0
 22 32  1  0  0  0  0
 23 33  1  0  0  0  0
 24 34  1  0  0  0  0
 24 35  1  0  0  0  0
 24 36  1  0  0  0  0
 25 37  1  0  0  0  0
 25 38  1  0  0  0  0
 25 39  1  0  0  0  0
M  CHG  1  16  -1
M  END
>  <$CLUSTER>
501

>  <INDEX>
21630

$$$$
InterBioScreen STOCK1S-13558
  MOE2020           3D

 50 54  0  0  1  0  0  0  0  0999 V2000
   -0.0440    0.6620   -1.3880 C   0  0  0  0  0  0  0  0  0  0  0  0
   -0.4830   -1.4670   -0.4630 N   0  0  0  0  0  0  0  0  0  0  0  0
   -0.0130   -0.8620   -1.7250 C   0  0  1  0  0  0  0  0  0  0  0  0
   -0.1180   -0.6620    0.7080 C   0  0  2  0  0  0  0  0  0  0  0  0
    0.4780    0.6350    0.0900 C   0  0  2  0  0  0  0  0  0  0  0  0
   -1.2240   -2.6250   -0.4290 C   0  0  0  0  0  0  0  0  0  0  0  0
    0.9390   -1.3910    1.5370 C   0  0  0  0  0  0  0  0  0  0  0  0
   -1.4220    1.1940   -1.4980 C   0  0  0  0  0  0  0  0  0  0  0  0
    0.9030    1.4250   -2.2270 C   0  0  0  0  0  0  0  0  0  0  0  0
   -0.7880   -1.3860   -2.9310 C   0  0  0  0  0  0  0  0  0  0  0  0
   -1.7660   -3.1980   -1.5070 C   0  0  0  0  0  0  0  0  0  0  0  0
    1.6540    2.0280   -2.8750 N   0  0  0  0  0  0  0  0  0  0  0  0
   -2.5020    1.6070   -1.5940 N   0  0  0  0  0  0  0  0  0  0  0  0
    0.2830    1.9070    0.8990 C   0  0  0  0  0  0  0  0  0  0  0  0
   -1.6020   -2.5370   -2.8080 C   0  0  0  0  0  0  0  0  0  0  0  0
    1.2850   -0.8490    2.8700 C   0  0  0  0  0  0  0  0  0  0  0  0
    1.5530   -2.3750    1.1320 O   0  0  0  0  0  0  0  0  0  0  0  0
    1.3590    2.8000    1.0370 C   0  0  0  0  0  0  0  0  0  0  0  0
   -0.9320    2.2360    1.5180 C   0  0  0  0  0  0  0  0  0  0  0  0
    2.6270   -0.8600    3.2650 C   0  0  0  0  0  0  0  0  0  0  0  0
    0.3070   -0.3420    3.7270 C   0  0  0  0  0  0  0  0  0  0  0  0
    0.0160    4.2820    2.3910 C   0  0  0  0  0  0  0  0  0  0  0  0
    2.0150    0.1760    5.3600 C   0  0  0  0  0  0  0  0  0  0  0  0
   -1.0640    3.4130    2.2600 C   0  0  0  0  0  0  0  0  0  0  0  0
    2.9890   -0.3440    4.5090 C   0  0  0  0  0  0  0  0  0  0  0  0
    1.2270    3.9760    1.7780 C   0  0  0  0  0  0  0  0  0  0  0  0
    0.6770    0.1740    4.9700 C   0  0  0  0  0  0  0  0  0  0  0  0
    2.4470    0.6550    6.5270 F   0  0  0  0  0  0  0  0  0  0  0  0
   -0.1930    5.3800    3.1170 F   0  0  0  0  0  0  0  0  0  0  0  0
   -0.6430   -0.8020   -4.1980 C   0  0  0  0  0  0  0  0  0  0  0  0
   -2.2690   -3.0530   -3.9280 C   0  0  0  0  0  0  0  0  0  0  0  0
   -1.3150   -1.3210   -5.3070 C   0  0  0  0  0  0  0  0  0  0  0  0
   -2.1280   -2.4420   -5.1720 C   0  0  0  0  0  0  0  0  0  0  0  0
    0.9910   -1.1270   -2.0580 H   0  0  0  0  0  0  0  0  0  0  0  0
   -0.9590   -0.4670    1.3730 H   0  0  0  0  0  0  0  0  0  0  0  0
    1.5680    0.6090    0.1070 H   0  0  0  0  0  0  0  0  0  0  0  0
   -1.3770   -3.1010    0.5290 H   0  0  0  0  0  0  0  0  0  0  0  0
   -2.3120   -4.1260   -1.4240 H   0  0  0  0  0  0  0  0  0  0  0  0
    2.3020    2.5730    0.5630 H   0  0  0  0  0  0  0  0  0  0  0  0
   -1.7770    1.5710    1.4200 H   0  0  0  0  0  0  0  0  0  0  0  0
    3.3810   -1.2670    2.6080 H   0  0  0  0  0  0  0  0  0  0  0  0
   -0.7310   -0.3490    3.4300 H   0  0  0  0  0  0  0  0  0  0  0  0
   -2.0060    3.6490    2.7330 H   0  0  0  0  0  0  0  0  0  0  0  0
    4.0250   -0.3470    4.8130 H   0  0  0  0  0  0  0  0  0  0  0  0
    2.0660    4.6490    1.8750 H   0  0  0  0  0  0  0  0  0  0  0  0
   -0.0770    0.5730    5.6320 H   0  0  0  0  0  0  0  0  0  0  0  0
   -0.0040    0.0600   -4.3180 H   0  0  0  0  0  0  0  0  0  0  0  0
   -2.8950   -3.9270   -3.8260 H   0  0  0  0  0  0  0  0  0  0  0  0
   -1.2030   -0.8510   -6.2730 H   0  0  0  0  0  0  0  0  0  0  0  0
   -2.6490   -2.8380   -6.0310 H   0  0  0  0  0  0  0  0  0  0  0  0
  1  3  1  0  0  0  0
  1  5  1  0  0  0  0
  1  8  1  0  0  0  0
  1  9  1  0  0  0  0
  2  3  1  0  0  0  0
  2  4  1  0  0  0  0
  2  6  1  0  0  0  0
  3 10  1  0  0  0  0
  3 34  1  0  0  0  0
  4  5  1  0  0  0  0
  4  7  1  0  0  0  0
  4 35  1  0  0  0  0
  5 14  1  0  0  0  0
  5 36  1  0  0  0  0
  6 11  2  0  0  0  0
  6 37  1  0  0  0  0
  7 16  1  0  0  0  0
  7 17  2  0  0  0  0
  8 13  3  0  0  0  0
  9 12  3  0  0  0  0
 10 15  1  0  0  0  0
 10 30  2  0  0  0  0
 11 15  1  0  0  0  0
 11 38  1  0  0  0  0
 14 18  1  0  0  0  0
 14 19  2  0  0  0  0
 15 31  2  0  0  0  0
 16 20  2  0  0  0  0
 16 21  1  0  0  0  0
 18 26  2  0  0  0  0
 18 39  1  0  0  0  0
 19 24  1  0  0  0  0
 19 40  1  0  0  0  0
 20 25  1  0  0  0  0
 20 41  1  0  0  0  0
 21 27  2  0  0  0  0
 21 42  1  0  0  0  0
 22 24  2  0  0  0  0
 22 26  1  0  0  0  0
 22 29  1  0  0  0  0
 23 25  2  0  0  0  0
 23 27  1  0  0  0  0
 23 28  1  0  0  0  0
 24 43  1  0  0  0  0
 25 44  1  0  0  0  0
 26 45  1  0  0  0  0
 27 46  1  0  0  0  0
 30 32  1  0  0  0  0
 30 47  1  0  0  0  0
 31 33  1  0  0  0  0
 31 48  1  0  0  0  0
 32 33  2  0  0  0  0
 32 49  1  0  0  0  0
 33 50  1  0  0  0  0
M  END
>  <$CLUSTER>
502

>  <INDEX>
329445

$$$$
InterBioScreen STOCK1S-16657
  MOE2020           3D

 17 18  0  0  0  0  0  0  0  0999 V2000
    0.9770   -0.3500   -0.5200 C   0  0  0  0  0  0  0  0  0  0  0  0
    0.1540   -0.3880    0.5860 C   0  0  0  0  0  0  0  0  0  0  0  0
    0.6610    0.4140   -1.6590 N   0  0  0  0  0  0  0  0  0  0  0  0
   -1.0820    0.3300    0.6930 C   0  0  0  0  0  0  0  0  0  0  0  0
   -1.3260    1.0590   -0.4670 N   0  0  0  0  0  0  0  0  0  0  0  0
    2.0890   -1.1290   -0.3480 N   0  0  0  0  0  0  0  0  0  0  0  0
   -0.4610    1.0600   -1.5520 C   0  0  0  0  0  0  0  0  0  0  0  0
    0.7940   -1.2220    1.4610 N   0  0  0  0  0  0  0  0  0  0  0  0
    1.9490   -1.6410    0.8570 C   0  0  0  0  0  0  0  0  0  0  0  0
   -1.8350    0.3170    1.6610 O   0  0  0  0  0  0  0  0  0  0  0  0
   -0.9740    2.0300   -2.8640 Cl  0  0  0  0  0  0  0  0  0  0  0  0
    0.3470   -1.5980    2.7780 C   0  0  0  0  0  0  0  0  0  0  0  0
   -2.1700    1.6120   -0.5220 H   0  0  0  0  0  0  0  0  0  0  0  0
    2.6610   -2.3120    1.3150 H   0  0  0  0  0  0  0  0  0  0  0  0
   -0.6050   -1.1110    2.9910 H   0  0  0  0  0  0  0  0  0  0  0  0
    1.0870   -1.2870    3.5150 H   0  0  0  0  0  0  0  0  0  0  0  0
    0.2200   -2.6800    2.8240 H   0  0  0  0  0  0  0  0  0  0  0  0
  1  2  2  0  0  0  0
  1  3  1  0  0  0  0
  1  6  1  0  0  0  0
  2  4  1  0  0  0  0
  2  8  1  0  0  0  0
  3  7  2  0  0  0  0
  4  5  1  0  0  0  0
  4 10  2  0  0  0  0
  5  7  1  0  0  0  0
  5 13  1  0  0  0  0
  6  9  2  0  0  0  0
  7 11  1  0  0  0  0
  8  9  1  0  0  0  0
  8 12  1  0  0  0  0
  9 14  1  0  0  0  0
 12 15  1  0  0  0  0
 12 16  1  0  0  0  0
 12 17  1  0  0  0  0
M  END
>  <$CLUSTER>
503

>  <INDEX>
329685

$$$$
Chembridge 5231680
  MOE2020           3D

 41 43  0  0  0  0  0  0  0  0999 V2000
    0.4230    0.1230    1.0380 C   0  0  0  0  0  0  0  0  0  0  0  0
    0.2230    1.0330   -1.2010 C   0  0  0  0  0  0  0  0  0  0  0  0
    1.4350    2.2490    0.4990 N   0  0  0  0  0  0  0  0  0  0  0  0
    1.1660    1.2610    1.3870 C   0  0  0  0  0  0  0  0  0  0  0  0
   -0.0630    0.0100   -0.2840 C   0  0  0  0  0  0  0  0  0  0  0  0
    0.9650    2.1160   -0.7590 C   0  0  0  0  0  0  0  0  0  0  0  0
   -0.8420   -1.1640   -0.7020 C   0  0  0  0  0  0  0  0  0  0  0  0
    0.1580   -0.9160    1.9980 C   0  0  0  0  0  0  0  0  0  0  0  0
   -0.2160    1.0000   -2.5650 C   0  0  0  0  0  0  0  0  0  0  0  0
   -0.0590   -1.7580    2.7670 N   0  0  0  0  0  0  0  0  0  0  0  0
   -0.5700    0.9750   -3.6700 N   0  0  0  0  0  0  0  0  0  0  0  0
    1.8140    1.4720    3.0550 S   0  0  0  0  0  0  0  0  0  0  0  0
   -2.5500   -1.1400   -0.5580 S   0  0  0  0  0  0  0  0  0  0  0  0
    3.8710    2.9740    2.0340 C   0  0  0  0  0  0  0  0  0  0  0  0
    5.1380    2.4780    2.6900 C   0  0  0  0  0  0  0  0  0  0  0  0
   -0.3900   -2.3580   -1.2260 C   0  0  0  0  0  0  0  0  0  0  0  0
    2.6440    3.0790    2.9240 C   0  0  0  0  0  0  0  0  0  0  0  0
   -2.6850   -2.7230   -1.1930 C   0  0  0  0  0  0  0  0  0  0  0  0
   -1.4560   -3.2600   -1.5090 C   0  0  0  0  0  0  0  0  0  0  0  0
    1.2270    3.1180   -1.6990 N   0  0  0  0  0  0  0  0  0  0  0  0
    3.8450    3.2610    0.8350 O   0  0  0  0  0  0  0  0  0  0  0  0
    6.2790    2.3750    1.8650 C   0  0  0  0  0  0  0  0  0  0  0  0
    5.2120    2.1430    4.0200 C   0  0  0  0  0  0  0  0  0  0  0  0
    6.4180    1.6950    4.5640 C   0  0  0  0  0  0  0  0  0  0  0  0
    7.4830    1.9260    2.4120 C   0  0  0  0  0  0  0  0  0  0  0  0
    7.5530    1.5860    3.7620 C   0  0  0  0  0  0  0  0  0  0  0  0
    8.8410    1.1070    4.3450 C   0  0  0  0  0  0  0  0  0  0  0  0
    0.6520   -2.5830   -1.4010 H   0  0  0  0  0  0  0  0  0  0  0  0
    2.9490    3.4070    3.9180 H   0  0  0  0  0  0  0  0  0  0  0  0
    1.9530    3.8060    2.4970 H   0  0  0  0  0  0  0  0  0  0  0  0
   -3.6230   -3.2400   -1.3300 H   0  0  0  0  0  0  0  0  0  0  0  0
   -1.3170   -4.2480   -1.9220 H   0  0  0  0  0  0  0  0  0  0  0  0
    1.7630    3.9320   -1.4340 H   0  0  0  0  0  0  0  0  0  0  0  0
    0.8800    3.0280   -2.6430 H   0  0  0  0  0  0  0  0  0  0  0  0
    6.2210    2.6410    0.8200 H   0  0  0  0  0  0  0  0  0  0  0  0
    4.3360    2.2260    4.6460 H   0  0  0  0  0  0  0  0  0  0  0  0
    6.4710    1.4320    5.6100 H   0  0  0  0  0  0  0  0  0  0  0  0
    8.3610    1.8420    1.7880 H   0  0  0  0  0  0  0  0  0  0  0  0
    8.7020    0.8910    5.4040 H   0  0  0  0  0  0  0  0  0  0  0  0
    9.6020    1.8780    4.2280 H   0  0  0  0  0  0  0  0  0  0  0  0
    9.1590    0.2010    3.8280 H   0  0  0  0  0  0  0  0  0  0  0  0
  1  4  2  0  0  0  0
  1  5  1  0  0  0  0
  1  8  1  0  0  0  0
  2  5  2  0  0  0  0
  2  6  1  0  0  0  0
  2  9  1  0  0  0  0
  3  4  1  0  0  0  0
  3  6  2  0  0  0  0
  4 12  1  0  0  0  0
  5  7  1  0  0  0  0
  6 20  1  0  0  0  0
  7 13  1  0  0  0  0
  7 16  2  0  0  0  0
  8 10  3  0  0  0  0
  9 11  3  0  0  0  0
 12 17  1  0  0  0  0
 13 18  1  0  0  0  0
 14 15  1  0  0  0  0
 14 17  1  0  0  0  0
 14 21  2  0  0  0  0
 15 22  1  0  0  0  0
 15 23  2  0  0  0  0
 16 19  1  0  0  0  0
 16 28  1  0  0  0  0
 17 29  1  0  0  0  0
 17 30  1  0  0  0  0
 18 19  2  0  0  0  0
 18 31  1  0  0  0  0
 19 32  1  0  0  0  0
 20 33  1  0  0  0  0
 20 34  1  0  0  0  0
 22 25  2  0  0  0  0
 22 35  1  0  0  0  0
 23 24  1  0  0  0  0
 23 36  1  0  0  0  0
 24 26  2  0  0  0  0
 24 37  1  0  0  0  0
 25 26  1  0  0  0  0
 25 38  1  0  0  0  0
 26 27  1  0  0  0  0
 27 39  1  0  0  0  0
 27 40  1  0  0  0  0
 27 41  1  0  0  0  0
M  END
>  <$CLUSTER>
504

>  <INDEX>
38726

$$$$
InterBioScreen STOCK1S-35234
  MOE2020           3D

 29 29  0  0  1  0  0  0  0  0999 V2000
    0.3620    0.6510   -0.0820 N   0  3  0  0  0  0  0  0  0  0  0  0
   -0.2920   -0.6470    0.0810 C   0  0  0  0  0  0  0  0  0  0  0  0
   -2.3090   -1.9190    0.2620 C   0  0  0  0  0  0  0  0  0  0  0  0
   -1.5130   -3.0690    0.3860 C   0  0  0  0  0  0  0  0  0  0  0  0
   -0.1560   -2.9690    0.3510 N   0  0  0  0  0  0  0  0  0  0  0  0
   -1.7850   -0.6130    0.1000 C   0  0  0  0  0  0  0  0  0  0  0  0
   -3.7410   -1.9730    0.2880 C   0  0  0  0  0  0  0  0  0  0  0  0
   -4.9010   -2.0190    0.3110 N   0  0  0  0  0  0  0  0  0  0  0  0
   -2.1090   -4.3190    0.5390 N   0  0  0  0  0  0  0  0  0  0  0  0
    0.4780   -1.7400    0.1970 C   0  0  0  0  0  0  0  0  0  0  0  0
    1.6040    0.6970   -0.1070 O   0  5  0  0  0  0  0  0  0  0  0  0
   -0.3660    1.6520   -0.1880 O   0  0  0  0  0  0  0  0  0  0  0  0
   -1.3330   -5.5460    0.6350 C   0  0  3  0  0  0  0  0  0  0  0  0
   -2.4650   -6.6070   -1.2880 O   0  0  0  0  0  0  0  0  0  0  0  0
   -2.1810   -6.7070    0.1150 C   0  0  0  0  0  0  0  0  0  0  0  0
   -0.9290   -5.7900    2.0870 C   0  0  0  0  0  0  0  0  0  0  0  0
   -0.0240   -6.9910    2.3030 C   0  0  0  0  0  0  0  0  0  0  0  0
   -2.3820    0.2820    0.0040 H   0  0  0  0  0  0  0  0  0  0  0  0
   -3.1160   -4.3750    0.5850 H   0  0  0  0  0  0  0  0  0  0  0  0
    1.5550   -1.6680    0.1720 H   0  0  0  0  0  0  0  0  0  0  0  0
   -0.4270   -5.4620    0.0350 H   0  0  0  0  0  0  0  0  0  0  0  0
   -2.9970   -7.3680   -1.5310 H   0  0  0  0  0  0  0  0  0  0  0  0
   -3.1240   -6.7200    0.6610 H   0  0  0  0  0  0  0  0  0  0  0  0
   -1.6440   -7.6380    0.2960 H   0  0  0  0  0  0  0  0  0  0  0  0
   -1.8370   -5.9400    2.6710 H   0  0  0  0  0  0  0  0  0  0  0  0
   -0.4080   -4.9030    2.4480 H   0  0  0  0  0  0  0  0  0  0  0  0
   -0.5250   -7.8920    1.9490 H   0  0  0  0  0  0  0  0  0  0  0  0
    0.1980   -7.0920    3.3650 H   0  0  0  0  0  0  0  0  0  0  0  0
    0.9040   -6.8510    1.7500 H   0  0  0  0  0  0  0  0  0  0  0  0
  1  2  1  0  0  0  0
  1 11  1  0  0  0  0
  1 12  2  0  0  0  0
  2  6  2  0  0  0  0
  2 10  1  0  0  0  0
  3  4  2  0  0  0  0
  3  6  1  0  0  0  0
  3  7  1  0  0  0  0
  4  5  1  0  0  0  0
  4  9  1  0  0  0  0
  5 10  2  0  0  0  0
  6 18  1  0  0  0  0
  7  8  3  0  0  0  0
  9 13  1  0  0  0  0
  9 19  1  0  0  0  0
 10 20  1  0  0  0  0
 13 15  1  0  0  0  0
 13 16  1  0  0  0  0
 13 21  1  0  0  0  0
 14 15  1  0  0  0  0
 14 22  1  0  0  0  0
 15 23  1  0  0  0  0
 15 24  1  0  0  0  0
 16 17  1  0  0  0  0
 16 25  1  0  0  0  0
 16 26  1  0  0  0  0
 17 27  1  0  0  0  0
 17 28  1  0  0  0  0
 17 29  1  0  0  0  0
M  CHG  1   1   1
M  CHG  1  11  -1
M  END
>  <$CLUSTER>
505

>  <INDEX>
330907

$$$$
Biofocus 233_6902_4251
  MOE2020           3D

 51 54  0  0  0  0  0  0  0  0999 V2000
    1.7960    1.2820    0.6070 S   0  0  0  0  0  0  0  0  0  0  0  0
    0.8440    0.0360    1.2350 N   0  0  0  0  0  0  0  0  0  0  0  0
    0.1500   -0.7240    0.2610 C   0  0  0  0  0  0  0  0  0  0  0  0
   -1.1490   -0.3900   -0.2360 C   0  0  0  0  0  0  0  0  0  0  0  0
   -3.9340    4.1820    1.2490 C   0  0  0  0  0  0  0  0  0  0  0  0
   -3.1140    3.2550    0.7230 N   0  0  0  0  0  0  0  0  0  0  0  0
   -2.0080    0.6010    0.2980 N   0  0  0  0  0  0  0  0  0  0  0  0
    3.2590    0.4170    0.0380 C   0  0  0  0  0  0  0  0  0  0  0  0
    0.9150   -1.7400   -0.2210 N   0  0  0  0  0  0  0  0  0  0  0  0
    2.1850    2.1190    1.7320 O   0  0  0  0  0  0  0  0  0  0  0  0
    1.1320    1.8880   -0.5360 O   0  0  0  0  0  0  0  0  0  0  0  0
   -1.6490   -1.1220   -1.2850 N   0  0  0  0  0  0  0  0  0  0  0  0
   -3.2360    2.5490   -0.5670 C   0  0  0  0  0  0  0  0  0  0  0  0
   -1.8970    2.7890    1.4160 C   0  0  0  0  0  0  0  0  0  0  0  0
   -3.1810    0.9810   -0.4830 C   0  0  0  0  0  0  0  0  0  0  0  0
   -1.7790    1.2320    1.5930 C   0  0  0  0  0  0  0  0  0  0  0  0
   -3.7560    4.7250    2.3420 O   0  0  0  0  0  0  0  0  0  0  0  0
   -5.1410    4.5600    0.4260 C   0  0  0  0  0  0  0  0  0  0  0  0
    4.3170    0.2100    0.9120 C   0  0  0  0  0  0  0  0  0  0  0  0
    3.3150    0.0020   -1.2890 C   0  0  0  0  0  0  0  0  0  0  0  0
    5.5310   -0.8720   -0.8770 C   0  0  0  0  0  0  0  0  0  0  0  0
    5.4600   -0.4440    0.4490 C   0  0  0  0  0  0  0  0  0  0  0  0
    4.4610   -0.6500   -1.7460 C   0  0  0  0  0  0  0  0  0  0  0  0
    6.6600   -1.4880   -1.2360 F   0  0  0  0  0  0  0  0  0  0  0  0
    0.3670   -2.4430   -1.2390 C   0  0  0  0  0  0  0  0  0  0  0  0
   -0.8800   -2.1360   -1.7640 C   0  0  0  0  0  0  0  0  0  0  0  0
   -6.2560    5.0680    1.0990 C   0  0  0  0  0  0  0  0  0  0  0  0
   -5.1470    4.4340   -0.9550 C   0  0  0  0  0  0  0  0  0  0  0  0
   -6.2860    4.8000   -1.6760 C   0  0  0  0  0  0  0  0  0  0  0  0
   -7.3920    5.4320    0.3720 C   0  0  0  0  0  0  0  0  0  0  0  0
   -7.4070    5.2960   -1.0140 C   0  0  0  0  0  0  0  0  0  0  0  0
    0.7750   -0.1520    2.2250 H   0  0  0  0  0  0  0  0  0  0  0  0
   -2.4210    2.8800   -1.2100 H   0  0  0  0  0  0  0  0  0  0  0  0
   -4.1890    2.8290   -1.0150 H   0  0  0  0  0  0  0  0  0  0  0  0
   -1.8790    3.2430    2.4070 H   0  0  0  0  0  0  0  0  0  0  0  0
   -1.0330    3.1290    0.8450 H   0  0  0  0  0  0  0  0  0  0  0  0
   -4.0830    0.6070    0.0020 H   0  0  0  0  0  0  0  0  0  0  0  0
   -3.1070    0.5610   -1.4860 H   0  0  0  0  0  0  0  0  0  0  0  0
   -0.7830    0.9770    1.9550 H   0  0  0  0  0  0  0  0  0  0  0  0
   -2.5250    0.8860    2.3080 H   0  0  0  0  0  0  0  0  0  0  0  0
    4.2570    0.5500    1.9350 H   0  0  0  0  0  0  0  0  0  0  0  0
    2.4840    0.1820   -1.9550 H   0  0  0  0  0  0  0  0  0  0  0  0
    6.2900   -0.6190    1.1180 H   0  0  0  0  0  0  0  0  0  0  0  0
    4.5200   -0.9830   -2.7720 H   0  0  0  0  0  0  0  0  0  0  0  0
    0.9190   -3.2720   -1.6570 H   0  0  0  0  0  0  0  0  0  0  0  0
   -1.2550   -2.7270   -2.5870 H   0  0  0  0  0  0  0  0  0  0  0  0
   -6.2390    5.1780    2.1730 H   0  0  0  0  0  0  0  0  0  0  0  0
   -4.2760    4.0550   -1.4700 H   0  0  0  0  0  0  0  0  0  0  0  0
   -6.2980    4.6980   -2.7510 H   0  0  0  0  0  0  0  0  0  0  0  0
   -8.2600    5.8190    0.8850 H   0  0  0  0  0  0  0  0  0  0  0  0
   -8.2870    5.5750   -1.5750 H   0  0  0  0  0  0  0  0  0  0  0  0
  1  2  1  0  0  0  0
  1  8  1  0  0  0  0
  1 10  2  0  0  0  0
  1 11  2  0  0  0  0
  2  3  1  0  0  0  0
  2 32  1  0  0  0  0
  3  4  2  0  0  0  0
  3  9  1  0  0  0  0
  4  7  1  0  0  0  0
  4 12  1  0  0  0  0
  5  6  1  0  0  0  0
  5 17  2  0  0  0  0
  5 18  1  0  0  0  0
  6 13  1  0  0  0  0
  6 14  1  0  0  0  0
  7 15  1  0  0  0  0
  7 16  1  0  0  0  0
  8 19  2  0  0  0  0
  8 20  1  0  0  0  0
  9 25  2  0  0  0  0
 12 26  2  0  0  0  0
 13 15  1  0  0  0  0
 13 33  1  0  0  0  0
 13 34  1  0  0  0  0
 14 16  1  0  0  0  0
 14 35  1  0  0  0  0
 14 36  1  0  0  0  0
 15 37  1  0  0  0  0
 15 38  1  0  0  0  0
 16 39  1  0  0  0  0
 16 40  1  0  0  0  0
 18 27  1  0  0  0  0
 18 28  2  0  0  0  0
 19 22  1  0  0  0  0
 19 41  1  0  0  0  0
 20 23  2  0  0  0  0
 20 42  1  0  0  0  0
 21 22  2  0  0  0  0
 21 23  1  0  0  0  0
 21 24  1  0  0  0  0
 22 43  1  0  0  0  0
 23 44  1  0  0  0  0
 25 26  1  0  0  0  0
 25 45  1  0  0  0  0
 26 46  1  0  0  0  0
 27 30  2  0  0  0  0
 27 47  1  0  0  0  0
 28 29  1  0  0  0  0
 28 48  1  0  0  0  0
 29 31  2  0  0  0  0
 29 49  1  0  0  0  0
 30 31  1  0  0  0  0
 30 50  1  0  0  0  0
 31 51  1  0  0  0  0
M  END
>  <$CLUSTER>
506

>  <INDEX>
22859

$$$$
InterBioScreen STOCK1S-02722
  MOE2020           3D

 19 19  0  0  1  0  0  0  0  0999 V2000
   -1.2950   -0.2270   -0.6940 C   0  0  0  0  0  0  0  0  0  0  0  0
    0.1990   -0.1990   -0.6950 C   0  0  0  0  0  0  0  0  0  0  0  0
   -1.7250    0.0850    0.5240 C   0  0  0  0  0  0  0  0  0  0  0  0
   -0.7530    0.3170    1.4730 O   0  0  0  0  0  0  0  0  0  0  0  0
    0.4460   -0.1970    0.8400 C   0  0  3  0  0  0  0  0  0  0  0  0
   -2.0380   -0.5230   -1.7720 C   0  0  0  0  0  0  0  0  0  0  0  0
    0.8000   -1.4460   -1.3480 C   0  0  0  0  0  0  0  0  0  0  0  0
    0.6850    1.0600   -1.4270 C   0  0  0  0  0  0  0  0  0  0  0  0
   -2.6860   -0.7790   -2.7040 N   0  0  0  0  0  0  0  0  0  0  0  0
    1.2200   -2.3570   -1.8050 N   0  0  0  0  0  0  0  0  0  0  0  0
    1.0810    1.9790   -1.8750 N   0  0  0  0  0  0  0  0  0  0  0  0
   -2.9990    0.1950    0.9110 N   0  0  0  0  0  0  0  0  0  0  0  0
    1.6430    0.6060    1.3270 C   0  0  0  0  0  0  0  0  0  0  0  0
    0.6790   -1.2270    1.1100 H   0  0  0  0  0  0  0  0  0  0  0  0
   -3.7440    0.0350    0.2480 H   0  0  0  0  0  0  0  0  0  0  0  0
   -3.2170    0.4390    1.8670 H   0  0  0  0  0  0  0  0  0  0  0  0
    1.4920    1.6600    1.0950 H   0  0  0  0  0  0  0  0  0  0  0  0
    2.5460    0.2500    0.8300 H   0  0  0  0  0  0  0  0  0  0  0  0
    1.7490    0.4830    2.4050 H   0  0  0  0  0  0  0  0  0  0  0  0
  1  2  1  0  0  0  0
  1  3  2  0  0  0  0
  1  6  1  0  0  0  0
  2  5  1  0  0  0  0
  2  7  1  0  0  0  0
  2  8  1  0  0  0  0
  3  4  1  0  0  0  0
  3 12  1  0  0  0  0
  4  5  1  0  0  0  0
  5 13  1  0  0  0  0
  5 14  1  0  0  0  0
  6  9  3  0  0  0  0
  7 10  3  0  0  0  0
  8 11  3  0  0  0  0
 12 15  1  0  0  0  0
 12 16  1  0  0  0  0
 13 17  1  0  0  0  0
 13 18  1  0  0  0  0
 13 19  1  0  0  0  0
M  END
>  <$CLUSTER>
507

>  <INDEX>
328388

$$$$
Specs AM-900/15051004
  MOE2020           3D

 58 61  0  0  0  0  0  0  0  0999 V2000
    1.6510    0.5890    2.0410 C   0  0  0  0  0  0  0  0  0  0  0  0
    1.1540    0.5370    3.3030 N   0  0  0  0  0  0  0  0  0  0  0  0
    2.9860    0.6260    1.7960 N   0  0  0  0  0  0  0  0  0  0  0  0
    2.0350    0.5220    4.3270 C   0  0  0  0  0  0  0  0  0  0  0  0
    0.8100    0.6040    1.0200 N   0  0  0  0  0  0  0  0  0  0  0  0
    3.3970    0.5570    4.1620 C   0  0  0  0  0  0  0  0  0  0  0  0
    3.8220    0.6090    2.8570 C   0  0  0  0  0  0  0  0  0  0  0  0
    1.4780    0.4670    5.6620 N   0  0  0  0  0  0  0  0  0  0  0  0
    6.1500    0.6380    3.5280 N   0  0  0  0  0  0  0  0  0  0  0  0
    5.2260    0.6500    2.5480 N   0  0  0  0  0  0  0  0  0  0  0  0
    7.3650    0.6790    3.0940 C   0  0  0  0  0  0  0  0  0  0  0  0
    9.7990    0.7190    3.4970 C   0  0  0  0  0  0  0  0  0  0  0  0
    8.5150    0.6730    4.0520 C   0  0  0  0  0  0  0  0  0  0  0  0
   10.9060    0.7160    4.3470 C   0  0  0  0  0  0  0  0  0  0  0  0
    1.2200    0.6590   -0.3840 C   0  0  0  0  0  0  0  0  0  0  0  0
   -0.6470    0.5690    1.1520 C   0  0  0  0  0  0  0  0  0  0  0  0
    0.0320    0.4300    5.8200 C   0  0  0  0  0  0  0  0  0  0  0  0
    2.3250    0.4470    6.8430 C   0  0  0  0  0  0  0  0  0  0  0  0
    9.4390    0.6220    6.2650 C   0  0  0  0  0  0  0  0  0  0  0  0
    8.3270    0.6250    5.4210 C   0  0  0  0  0  0  0  0  0  0  0  0
   10.7260    0.6670    5.7290 C   0  0  0  0  0  0  0  0  0  0  0  0
   12.2870    0.7640    3.7810 C   0  0  0  0  0  0  0  0  0  0  0  0
   -0.3300   -0.8180    6.6560 C   0  0  0  0  0  0  0  0  0  0  0  0
    1.9600   -0.8010    7.6780 C   0  0  0  0  0  0  0  0  0  0  0  0
   -1.2460   -0.6330    0.4240 C   0  0  0  0  0  0  0  0  0  0  0  0
    0.6890   -0.5400   -1.1690 C   0  0  0  0  0  0  0  0  0  0  0  0
   -0.8260   -0.6570   -1.0430 C   0  0  0  0  0  0  0  0  0  0  0  0
    0.4650   -0.9240    7.9540 C   0  0  0  0  0  0  0  0  0  0  0  0
    4.0830    0.5450    4.9960 H   0  0  0  0  0  0  0  0  0  0  0  0
    5.5230    0.6880    1.5830 H   0  0  0  0  0  0  0  0  0  0  0  0
    7.5530    0.7180    2.0310 H   0  0  0  0  0  0  0  0  0  0  0  0
    9.9310    0.7560    2.4260 H   0  0  0  0  0  0  0  0  0  0  0  0
    2.3090    0.6620   -0.4350 H   0  0  0  0  0  0  0  0  0  0  0  0
    0.8330    1.5750   -0.8310 H   0  0  0  0  0  0  0  0  0  0  0  0
   -1.0630    1.4830    0.7280 H   0  0  0  0  0  0  0  0  0  0  0  0
   -0.9060    0.5080    2.2090 H   0  0  0  0  0  0  0  0  0  0  0  0
   -0.4450    0.3700    4.8420 H   0  0  0  0  0  0  0  0  0  0  0  0
   -0.3060    1.3300    6.3340 H   0  0  0  0  0  0  0  0  0  0  0  0
    2.1570    1.3480    7.4330 H   0  0  0  0  0  0  0  0  0  0  0  0
    3.3720    0.3980    6.5450 H   0  0  0  0  0  0  0  0  0  0  0  0
    9.3020    0.5850    7.3360 H   0  0  0  0  0  0  0  0  0  0  0  0
    7.3290    0.5900    5.8330 H   0  0  0  0  0  0  0  0  0  0  0  0
   11.5840    0.6640    6.3850 H   0  0  0  0  0  0  0  0  0  0  0  0
   12.2330    0.7980    2.6930 H   0  0  0  0  0  0  0  0  0  0  0  0
   12.8370   -0.1250    4.0890 H   0  0  0  0  0  0  0  0  0  0  0  0
   12.7990    1.6540    4.1480 H   0  0  0  0  0  0  0  0  0  0  0  0
   -0.1330   -1.7060    6.0560 H   0  0  0  0  0  0  0  0  0  0  0  0
   -1.3910   -0.7740    6.9020 H   0  0  0  0  0  0  0  0  0  0  0  0
    2.4850   -0.7450    8.6320 H   0  0  0  0  0  0  0  0  0  0  0  0
    2.2860   -1.6880    7.1350 H   0  0  0  0  0  0  0  0  0  0  0  0
   -2.3330   -0.5780    0.4810 H   0  0  0  0  0  0  0  0  0  0  0  0
   -0.9030   -1.5480    0.9070 H   0  0  0  0  0  0  0  0  0  0  0  0
    1.1490   -1.4490   -0.7820 H   0  0  0  0  0  0  0  0  0  0  0  0
    0.9500   -0.4200   -2.2210 H   0  0  0  0  0  0  0  0  0  0  0  0
   -1.2940    0.1780   -1.5640 H   0  0  0  0  0  0  0  0  0  0  0  0
   -1.1520   -1.5950   -1.4940 H   0  0  0  0  0  0  0  0  0  0  0  0
    0.2650   -1.8890    8.4190 H   0  0  0  0  0  0  0  0  0  0  0  0
    0.1580   -0.1250    8.6290 H   0  0  0  0  0  0  0  0  0  0  0  0
  1  2  2  0  0  0  0
  1  3  1  0  0  0  0
  1  5  1  0  0  0  0
  2  4  1  0  0  0  0
  3  7  2  0  0  0  0
  4  6  2  0  0  0  0
  4  8  1  0  0  0  0
  5 15  1  0  0  0  0
  5 16  1  0  0  0  0
  6  7  1  0  0  0  0
  6 29  1  0  0  0  0
  7 10  1  0  0  0  0
  8 17  1  0  0  0  0
  8 18  1  0  0  0  0
  9 10  1  0  0  0  0
  9 11  2  0  0  0  0
 10 30  1  0  0  0  0
 11 13  1  0  0  0  0
 11 31  1  0  0  0  0
 12 13  2  0  0  0  0
 12 14  1  0  0  0  0
 12 32  1  0  0  0  0
 13 20  1  0  0  0  0
 14 21  2  0  0  0  0
 14 22  1  0  0  0  0
 15 26  1  0  0  0  0
 15 33  1  0  0  0  0
 15 34  1  0  0  0  0
 16 25  1  0  0  0  0
 16 35  1  0  0  0  0
 16 36  1  0  0  0  0
 17 23  1  0  0  0  0
 17 37  1  0  0  0  0
 17 38  1  0  0  0  0
 18 24  1  0  0  0  0
 18 39  1  0  0  0  0
 18 40  1  0  0  0  0
 19 20  2  0  0  0  0
 19 21  1  0  0  0  0
 19 41  1  0  0  0  0
 20 42  1  0  0  0  0
 21 43  1  0  0  0  0
 22 44  1  0  0  0  0
 22 45  1  0  0  0  0
 22 46  1  0  0  0  0
 23 28  1  0  0  0  0
 23 47  1  0  0  0  0
 23 48  1  0  0  0  0
 24 28  1  0  0  0  0
 24 49  1  0  0  0  0
 24 50  1  0  0  0  0
 25 27  1  0  0  0  0
 25 51  1  0  0  0  0
 25 52  1  0  0  0  0
 26 27  1  0  0  0  0
 26 53  1  0  0  0  0
 26 54  1  0  0  0  0
 27 55  1  0  0  0  0
 27 56  1  0  0  0  0
 28 57  1  0  0  0  0
 28 58  1  0  0  0  0
M  END
>  <$CLUSTER>
508

>  <INDEX>
505362

$$$$
InterBioScreen STOCK1S-67026
  MOE2020           3D

 43 45  0  0  0  0  0  0  0  0999 V2000
   -0.4560   -0.3120    0.0020 N   0  0  0  0  0  0  0  0  0  0  0  0
   -0.9170   -1.5390   -0.4700 C   0  0  0  0  0  0  0  0  0  0  0  0
   -0.0700    0.7400   -0.8310 C   0  0  0  0  0  0  0  0  0  0  0  0
    0.0970    0.3900   -2.2690 C   0  0  0  0  0  0  0  0  0  0  0  0
   -0.9370   -1.7010   -1.8230 N   0  0  0  0  0  0  0  0  0  0  0  0
   -0.4850   -0.8540   -2.7840 C   0  0  0  0  0  0  0  0  0  0  0  0
   -0.4000   -0.0980    1.4230 C   0  0  0  0  0  0  0  0  0  0  0  0
   -1.5290   -0.3720    2.2140 C   0  0  0  0  0  0  0  0  0  0  0  0
    0.7690    1.2660   -3.0360 C   0  0  0  0  0  0  0  0  0  0  0  0
   -1.2770   -2.4770    0.2410 O   0  0  0  0  0  0  0  0  0  0  0  0
    0.0640    1.9100   -0.4640 O   0  0  0  0  0  0  0  0  0  0  0  0
    2.1080    1.8860   -6.5910 C   0  0  0  0  0  0  0  0  0  0  0  0
    0.7740    0.3920    2.0400 C   0  0  0  0  0  0  0  0  0  0  0  0
    1.1270    1.1550   -4.4860 C   0  0  0  0  0  0  0  0  0  0  0  0
   -0.5850   -1.1220   -3.9780 O   0  0  0  0  0  0  0  0  0  0  0  0
    1.7360    0.7760   -7.3000 O   0  0  0  0  0  0  0  0  0  0  0  0
    1.7730    2.0390   -5.1440 C   0  0  0  0  0  0  0  0  0  0  0  0
    2.7850    2.7440   -7.4050 C   0  0  0  0  0  0  0  0  0  0  0  0
    2.1870    0.9470   -8.5660 C   0  0  0  0  0  0  0  0  0  0  0  0
    2.8410    2.1460   -8.6850 C   0  0  0  0  0  0  0  0  0  0  0  0
    0.7810    0.6240    3.4260 C   0  0  0  0  0  0  0  0  0  0  0  0
   -1.5070   -0.1350    3.5880 C   0  0  0  0  0  0  0  0  0  0  0  0
   -0.3580    0.3670    4.1900 C   0  0  0  0  0  0  0  0  0  0  0  0
    1.8990    0.5270    1.2300 O   0  0  0  0  0  0  0  0  0  0  0  0
   -2.6860   -0.4330    4.2330 O   0  0  0  0  0  0  0  0  0  0  0  0
    3.0100    1.2400    1.7870 C   0  0  0  0  0  0  0  0  0  0  0  0
   -2.7190   -0.2130    5.6390 C   0  0  0  0  0  0  0  0  0  0  0  0
   -1.3410   -2.5650   -2.1550 H   0  0  0  0  0  0  0  0  0  0  0  0
   -2.4210   -0.7700    1.7540 H   0  0  0  0  0  0  0  0  0  0  0  0
    1.0940    2.1690   -2.5410 H   0  0  0  0  0  0  0  0  0  0  0  0
    0.8170    0.2640   -5.0130 H   0  0  0  0  0  0  0  0  0  0  0  0
    2.0900    2.9350   -4.6320 H   0  0  0  0  0  0  0  0  0  0  0  0
    3.2010    3.7010   -7.1250 H   0  0  0  0  0  0  0  0  0  0  0  0
    2.0500    0.2380   -9.3690 H   0  0  0  0  0  0  0  0  0  0  0  0
    3.3040    2.5500   -9.5730 H   0  0  0  0  0  0  0  0  0  0  0  0
    1.6730    1.0030    3.9020 H   0  0  0  0  0  0  0  0  0  0  0  0
   -0.3470    0.5590    5.2530 H   0  0  0  0  0  0  0  0  0  0  0  0
    3.8210    1.2760    1.0590 H   0  0  0  0  0  0  0  0  0  0  0  0
    3.3530    0.7320    2.6880 H   0  0  0  0  0  0  0  0  0  0  0  0
    2.7020    2.2550    2.0370 H   0  0  0  0  0  0  0  0  0  0  0  0
   -3.7010   -0.4860    6.0260 H   0  0  0  0  0  0  0  0  0  0  0  0
   -2.5260    0.8390    5.8470 H   0  0  0  0  0  0  0  0  0  0  0  0
   -1.9560   -0.8240    6.1200 H   0  0  0  0  0  0  0  0  0  0  0  0
  1  2  1  0  0  0  0
  1  3  1  0  0  0  0
  1  7  1  0  0  0  0
  2  5  1  0  0  0  0
  2 10  2  0  0  0  0
  3  4  1  0  0  0  0
  3 11  2  0  0  0  0
  4  6  1  0  0  0  0
  4  9  2  0  0  0  0
  5  6  1  0  0  0  0
  5 28  1  0  0  0  0
  6 15  2  0  0  0  0
  7  8  2  0  0  0  0
  7 13  1  0  0  0  0
  8 22  1  0  0  0  0
  8 29  1  0  0  0  0
  9 14  1  0  0  0  0
  9 30  1  0  0  0  0
 12 16  1  0  0  0  0
 12 17  1  0  0  0  0
 12 18  2  0  0  0  0
 13 21  2  0  0  0  0
 13 24  1  0  0  0  0
 14 17  2  0  0  0  0
 14 31  1  0  0  0  0
 16 19  1  0  0  0  0
 17 32  1  0  0  0  0
 18 20  1  0  0  0  0
 18 33  1  0  0  0  0
 19 20  2  0  0  0  0
 19 34  1  0  0  0  0
 20 35  1  0  0  0  0
 21 23  1  0  0  0  0
 21 36  1  0  0  0  0
 22 23  2  0  0  0  0
 22 25  1  0  0  0  0
 23 37  1  0  0  0  0
 24 26  1  0  0  0  0
 25 27  1  0  0  0  0
 26 38  1  0  0  0  0
 26 39  1  0  0  0  0
 26 40  1  0  0  0  0
 27 41  1  0  0  0  0
 27 42  1  0  0  0  0
 27 43  1  0  0  0  0
M  END
>  <$CLUSTER>
509

>  <INDEX>
332779

$$$$
InterBioScreen STOCK1S-67179
  MOE2020           3D

 48 50  0  0  0  0  0  0  0  0999 V2000
   -0.0670    0.1120   -0.3050 N   0  0  0  0  0  0  0  0  0  0  0  0
   -1.0190    1.1040   -0.5810 C   0  0  0  0  0  0  0  0  0  0  0  0
   -0.6600    0.2130    2.0810 C   0  0  0  0  0  0  0  0  0  0  0  0
    0.1740   -0.3730    0.9930 C   0  0  0  0  0  0  0  0  0  0  0  0
   -1.6310    1.6900    0.4990 N   0  0  0  0  0  0  0  0  0  0  0  0
   -1.4970    1.3870    1.8170 C   0  0  0  0  0  0  0  0  0  0  0  0
   -0.5890   -0.3700    3.2920 C   0  0  0  0  0  0  0  0  0  0  0  0
    0.7310   -0.4640   -1.3560 C   0  0  0  0  0  0  0  0  0  0  0  0
   -1.5500    1.6320   -2.1010 S   0  0  0  0  0  0  0  0  0  0  0  0
    1.0340   -1.2120    1.2740 O   0  0  0  0  0  0  0  0  0  0  0  0
   -2.0350    2.0620    2.6900 O   0  0  0  0  0  0  0  0  0  0  0  0
   -2.7520    0.6100    6.8360 C   0  0  0  0  0  0  0  0  0  0  0  0
   -3.4860    0.9400    8.0440 N   0  0  0  0  0  0  0  0  0  0  0  0
   -1.3470   -0.0310    4.5380 C   0  0  0  0  0  0  0  0  0  0  0  0
    0.7840   -1.8580   -1.5240 C   0  0  0  0  0  0  0  0  0  0  0  0
    1.5020    0.3490   -2.2010 C   0  0  0  0  0  0  0  0  0  0  0  0
   -2.4350   -0.7150    6.5490 C   0  0  0  0  0  0  0  0  0  0  0  0
   -2.3580    1.6230    5.9640 C   0  0  0  0  0  0  0  0  0  0  0  0
    2.3160   -1.6010   -3.3750 C   0  0  0  0  0  0  0  0  0  0  0  0
   -1.7280   -1.0280    5.3870 C   0  0  0  0  0  0  0  0  0  0  0  0
   -1.6520    1.3110    4.8010 C   0  0  0  0  0  0  0  0  0  0  0  0
    1.5680   -2.4210   -2.5330 C   0  0  0  0  0  0  0  0  0  0  0  0
    2.2870   -0.2180   -3.2070 C   0  0  0  0  0  0  0  0  0  0  0  0
    3.0320   -2.2190   -4.3160 F   0  0  0  0  0  0  0  0  0  0  0  0
   -3.8360   -0.0770    9.0430 C   0  0  0  0  0  0  0  0  0  0  0  0
   -3.9250    2.3110    8.3370 C   0  0  0  0  0  0  0  0  0  0  0  0
   -5.1530   -0.7570    8.6950 C   0  0  0  0  0  0  0  0  0  0  0  0
   -2.8350    3.0920    9.0570 C   0  0  0  0  0  0  0  0  0  0  0  0
   -2.2650    2.4470    0.2860 H   0  0  0  0  0  0  0  0  0  0  0  0
    0.1070   -1.1910    3.3760 H   0  0  0  0  0  0  0  0  0  0  0  0
    0.2140   -2.4990   -0.8680 H   0  0  0  0  0  0  0  0  0  0  0  0
    1.4880    1.4210   -2.0720 H   0  0  0  0  0  0  0  0  0  0  0  0
   -2.7360   -1.5010    7.2260 H   0  0  0  0  0  0  0  0  0  0  0  0
   -2.5990    2.6510    6.1880 H   0  0  0  0  0  0  0  0  0  0  0  0
   -1.4840   -2.0550    5.1610 H   0  0  0  0  0  0  0  0  0  0  0  0
   -1.3470    2.0890    4.1170 H   0  0  0  0  0  0  0  0  0  0  0  0
    1.5950   -3.4930   -2.6610 H   0  0  0  0  0  0  0  0  0  0  0  0
    2.8730    0.4160   -3.8560 H   0  0  0  0  0  0  0  0  0  0  0  0
   -3.0460   -0.8280    9.0790 H   0  0  0  0  0  0  0  0  0  0  0  0
   -3.9280    0.4000   10.0190 H   0  0  0  0  0  0  0  0  0  0  0  0
   -4.1660    2.8160    7.4010 H   0  0  0  0  0  0  0  0  0  0  0  0
   -4.8130    2.2740    8.9680 H   0  0  0  0  0  0  0  0  0  0  0  0
   -5.0680   -1.2360    7.7200 H   0  0  0  0  0  0  0  0  0  0  0  0
   -5.9490   -0.0130    8.6660 H   0  0  0  0  0  0  0  0  0  0  0  0
   -5.3850   -1.5080    9.4500 H   0  0  0  0  0  0  0  0  0  0  0  0
   -1.9440    3.1330    8.4310 H   0  0  0  0  0  0  0  0  0  0  0  0
   -2.5950    2.5970    9.9980 H   0  0  0  0  0  0  0  0  0  0  0  0
   -3.1860    4.1040    9.2580 H   0  0  0  0  0  0  0  0  0  0  0  0
  1  2  1  0  0  0  0
  1  4  1  0  0  0  0
  1  8  1  0  0  0  0
  2  5  1  0  0  0  0
  2  9  2  0  0  0  0
  3  4  1  0  0  0  0
  3  6  1  0  0  0  0
  3  7  2  0  0  0  0
  4 10  2  0  0  0  0
  5  6  1  0  0  0  0
  5 29  1  0  0  0  0
  6 11  2  0  0  0  0
  7 14  1  0  0  0  0
  7 30  1  0  0  0  0
  8 15  2  0  0  0  0
  8 16  1  0  0  0  0
 12 13  1  0  0  0  0
 12 17  2  0  0  0  0
 12 18  1  0  0  0  0
 13 25  1  0  0  0  0
 13 26  1  0  0  0  0
 14 20  2  0  0  0  0
 14 21  1  0  0  0  0
 15 22  1  0  0  0  0
 15 31  1  0  0  0  0
 16 23  2  0  0  0  0
 16 32  1  0  0  0  0
 17 20  1  0  0  0  0
 17 33  1  0  0  0  0
 18 21  2  0  0  0  0
 18 34  1  0  0  0  0
 19 22  2  0  0  0  0
 19 23  1  0  0  0  0
 19 24  1  0  0  0  0
 20 35  1  0  0  0  0
 21 36  1  0  0  0  0
 22 37  1  0  0  0  0
 23 38  1  0  0  0  0
 25 27  1  0  0  0  0
 25 39  1  0  0  0  0
 25 40  1  0  0  0  0
 26 28  1  0  0  0  0
 26 41  1  0  0  0  0
 26 42  1  0  0  0  0
 27 43  1  0  0  0  0
 27 44  1  0  0  0  0
 27 45  1  0  0  0  0
 28 46  1  0  0  0  0
 28 47  1  0  0  0  0
 28 48  1  0  0  0  0
M  END
>  <$CLUSTER>
510

>  <INDEX>
332790

$$$$
InterBioScreen STOCK1S-77767
  MOE2020           3D

 46 47  0  0  0  0  0  0  0  0999 V2000
    0.1580    2.6240   -0.8250 C   0  0  0  0  0  0  0  0  0  0  0  0
   -0.0580    1.3040   -0.6770 N   0  0  0  0  0  0  0  0  0  0  0  0
   -0.8300    3.4480   -0.3280 N   0  0  0  0  0  0  0  0  0  0  0  0
   -6.5260    2.6780    1.2610 C   0  0  0  0  0  0  0  0  0  0  0  0
    1.1660    3.1040   -1.3500 O   0  0  0  0  0  0  0  0  0  0  0  0
   -6.7000    1.3290    1.5580 C   0  0  0  0  0  0  0  0  0  0  0  0
   -5.3900    3.1010    0.5700 C   0  0  0  0  0  0  0  0  0  0  0  0
   -2.0550    2.9830    0.3930 C   0  0  0  0  0  0  0  0  0  0  0  0
    0.0500   -1.2900    0.6520 O   0  0  0  0  0  0  0  0  0  0  0  0
   -5.7380    0.4010    1.1670 C   0  0  0  0  0  0  0  0  0  0  0  0
   -4.4130    2.1770    0.1660 C   0  0  0  0  0  0  0  0  0  0  0  0
   -3.1800    2.6330   -0.5670 C   0  0  0  0  0  0  0  0  0  0  0  0
   -4.6010    0.8210    0.4770 C   0  0  0  0  0  0  0  0  0  0  0  0
   -7.5270    3.5290    1.6870 O   0  0  0  0  0  0  0  0  0  0  0  0
   -7.8510    1.0050    2.2450 O   0  0  0  0  0  0  0  0  0  0  0  0
   -1.2610    0.6380   -0.1500 C   0  0  0  0  0  0  0  0  0  0  0  0
    0.9480    0.2850   -1.0190 C   0  0  0  0  0  0  0  0  0  0  0  0
   -0.7680    4.9110   -0.4950 C   0  0  0  0  0  0  0  0  0  0  0  0
    1.2470   -0.6420    0.1700 C   0  0  0  0  0  0  0  0  0  0  0  0
   -0.9270   -0.2950    1.0250 C   0  0  0  0  0  0  0  0  0  0  0  0
   -7.3830    4.9150    1.3990 C   0  0  0  0  0  0  0  0  0  0  0  0
   -8.0600   -0.3640    2.5660 C   0  0  0  0  0  0  0  0  0  0  0  0
   -5.2610    4.1490    0.3440 H   0  0  0  0  0  0  0  0  0  0  0  0
   -2.3940    3.7760    1.0590 H   0  0  0  0  0  0  0  0  0  0  0  0
   -1.8040    2.0990    0.9790 H   0  0  0  0  0  0  0  0  0  0  0  0
   -5.8730   -0.6450    1.3980 H   0  0  0  0  0  0  0  0  0  0  0  0
   -2.8450    1.8330   -1.2280 H   0  0  0  0  0  0  0  0  0  0  0  0
   -3.4260    3.5140   -1.1590 H   0  0  0  0  0  0  0  0  0  0  0  0
   -3.8580    0.0960    0.1790 H   0  0  0  0  0  0  0  0  0  0  0  0
   -1.7180    0.0520   -0.9470 H   0  0  0  0  0  0  0  0  0  0  0  0
   -1.9640    1.3980    0.1910 H   0  0  0  0  0  0  0  0  0  0  0  0
    1.8700    0.7850   -1.3170 H   0  0  0  0  0  0  0  0  0  0  0  0
    0.5750   -0.3150   -1.8490 H   0  0  0  0  0  0  0  0  0  0  0  0
    0.1460    5.1780   -1.0260 H   0  0  0  0  0  0  0  0  0  0  0  0
   -0.7720    5.3890    0.4850 H   0  0  0  0  0  0  0  0  0  0  0  0
   -1.6320    5.2480   -1.0670 H   0  0  0  0  0  0  0  0  0  0  0  0
    1.9590   -1.4040   -0.1460 H   0  0  0  0  0  0  0  0  0  0  0  0
    1.6800   -0.0530    0.9780 H   0  0  0  0  0  0  0  0  0  0  0  0
   -0.5300    0.3000    1.8470 H   0  0  0  0  0  0  0  0  0  0  0  0
   -1.8390   -0.7980    1.3480 H   0  0  0  0  0  0  0  0  0  0  0  0
   -8.2420    5.4590    1.7920 H   0  0  0  0  0  0  0  0  0  0  0  0
   -7.3260    5.0580    0.3200 H   0  0  0  0  0  0  0  0  0  0  0  0
   -6.4710    5.2900    1.8640 H   0  0  0  0  0  0  0  0  0  0  0  0
   -9.0020   -0.4710    3.1040 H   0  0  0  0  0  0  0  0  0  0  0  0
   -7.2410   -0.7200    3.1920 H   0  0  0  0  0  0  0  0  0  0  0  0
   -8.0970   -0.9510    1.6480 H   0  0  0  0  0  0  0  0  0  0  0  0
  1  2  1  0  0  0  0
  1  3  1  0  0  0  0
  1  5  2  0  0  0  0
  2 16  1  0  0  0  0
  2 17  1  0  0  0  0
  3  8  1  0  0  0  0
  3 18  1  0  0  0  0
  4  6  2  0  0  0  0
  4  7  1  0  0  0  0
  4 14  1  0  0  0  0
  6 10  1  0  0  0  0
  6 15  1  0  0  0  0
  7 11  2  0  0  0  0
  7 23  1  0  0  0  0
  8 12  1  0  0  0  0
  8 24  1  0  0  0  0
  8 25  1  0  0  0  0
  9 19  1  0  0  0  0
  9 20  1  0  0  0  0
 10 13  2  0  0  0  0
 10 26  1  0  0  0  0
 11 12  1  0  0  0  0
 11 13  1  0  0  0  0
 12 27  1  0  0  0  0
 12 28  1  0  0  0  0
 13 29  1  0  0  0  0
 14 21  1  0  0  0  0
 15 22  1  0  0  0  0
 16 20  1  0  0  0  0
 16 30  1  0  0  0  0
 16 31  1  0  0  0  0
 17 19  1  0  0  0  0
 17 32  1  0  0  0  0
 17 33  1  0  0  0  0
 18 34  1  0  0  0  0
 18 35  1  0  0  0  0
 18 36  1  0  0  0  0
 19 37  1  0  0  0  0
 19 38  1  0  0  0  0
 20 39  1  0  0  0  0
 20 40  1  0  0  0  0
 21 41  1  0  0  0  0
 21 42  1  0  0  0  0
 21 43  1  0  0  0  0
 22 44  1  0  0  0  0
 22 45  1  0  0  0  0
 22 46  1  0  0  0  0
M  END
>  <$CLUSTER>
511

>  <INDEX>
333503

$$$$
Princeton Biomolecular OSSK_615582
  MOE2020           3D

 50 52  0  0  0  0  0  0  0  0999 V2000
   -5.1850    4.7860   -2.4030 C   0  0  0  0  0  0  0  0  0  0  0  0
   -4.1770    3.9830   -3.0060 O   0  0  0  0  0  0  0  0  0  0  0  0
    1.6760   -1.7010    0.1010 C   0  0  0  0  0  0  0  0  0  0  0  0
   -3.3880    3.2140   -2.1680 C   0  0  0  0  0  0  0  0  0  0  0  0
   -2.4100    2.4380   -2.7900 C   0  0  0  0  0  0  0  0  0  0  0  0
    0.0880    0.0190   -0.2960 N   0  0  0  0  0  0  0  0  0  0  0  0
    0.7810   -0.6820    0.6270 N   0  0  0  0  0  0  0  0  0  0  0  0
   -5.3710    4.8170   -1.2010 O   0  0  0  0  0  0  0  0  0  0  0  0
   -5.9260    5.5360   -3.4310 C   0  0  0  0  0  0  0  0  0  0  0  0
   -1.5650    1.6290   -2.0270 C   0  0  0  0  0  0  0  0  0  0  0  0
    1.8650   -1.9620   -1.0550 O   0  0  0  0  0  0  0  0  0  0  0  0
    3.9760   -3.9850    2.9880 C   0  0  0  0  0  0  0  0  0  0  0  0
   -3.5250    3.1820   -0.7800 C   0  0  0  0  0  0  0  0  0  0  0  0
    2.3960   -2.3990    1.2380 C   0  0  0  0  0  0  0  0  0  0  0  0
   -0.8360    0.7590    0.2210 C   0  0  0  0  0  0  0  0  0  0  0  0
    3.2640   -3.3770    0.7190 O   0  0  0  0  0  0  0  0  0  0  0  0
   -1.7090    1.6050   -0.6530 C   0  0  0  0  0  0  0  0  0  0  0  0
    4.0030   -4.1140    1.5970 C   0  0  0  0  0  0  0  0  0  0  0  0
    4.7830   -4.8020    3.7850 C   0  0  0  0  0  0  0  0  0  0  0  0
   -2.6850    2.3760   -0.0110 C   0  0  0  0  0  0  0  0  0  0  0  0
   -2.3510    2.5360   -4.1700 O   0  0  0  0  0  0  0  0  0  0  0  0
    4.7490   -4.6430    5.4820 Cl  0  0  0  0  0  0  0  0  0  0  0  0
    5.6510   -5.8840    1.8130 C   0  0  0  0  0  0  0  0  0  0  0  0
   -5.6480    5.4420   -4.7880 C   0  0  0  0  0  0  0  0  0  0  0  0
   -6.9500    6.3680   -2.9740 C   0  0  0  0  0  0  0  0  0  0  0  0
    4.8460   -5.0690    1.0160 C   0  0  0  0  0  0  0  0  0  0  0  0
    5.6200   -5.7500    3.1990 C   0  0  0  0  0  0  0  0  0  0  0  0
   -1.3650    1.7590   -4.8390 C   0  0  0  0  0  0  0  0  0  0  0  0
   -6.3990    6.1870   -5.7010 C   0  0  0  0  0  0  0  0  0  0  0  0
   -7.6980    7.1100   -3.8900 C   0  0  0  0  0  0  0  0  0  0  0  0
   -7.4220    7.0200   -5.2530 C   0  0  0  0  0  0  0  0  0  0  0  0
    0.6840   -0.5100    1.6180 H   0  0  0  0  0  0  0  0  0  0  0  0
   -0.8060    1.0280   -2.5060 H   0  0  0  0  0  0  0  0  0  0  0  0
    3.3300   -3.2520    3.4490 H   0  0  0  0  0  0  0  0  0  0  0  0
   -4.2830    3.7830   -0.3000 H   0  0  0  0  0  0  0  0  0  0  0  0
    1.6650   -2.8740    1.8930 H   0  0  0  0  0  0  0  0  0  0  0  0
    2.9720   -1.6680    1.8060 H   0  0  0  0  0  0  0  0  0  0  0  0
   -0.9800    0.7680    1.2910 H   0  0  0  0  0  0  0  0  0  0  0  0
   -2.7860    2.3470    1.0640 H   0  0  0  0  0  0  0  0  0  0  0  0
    6.2980   -6.6180    1.3550 H   0  0  0  0  0  0  0  0  0  0  0  0
   -4.8550    4.7960   -5.1360 H   0  0  0  0  0  0  0  0  0  0  0  0
   -7.1620    6.4370   -1.9170 H   0  0  0  0  0  0  0  0  0  0  0  0
    4.8740   -5.1760   -0.0580 H   0  0  0  0  0  0  0  0  0  0  0  0
    6.2430   -6.3790    3.8180 H   0  0  0  0  0  0  0  0  0  0  0  0
   -1.4320    1.9330   -5.9130 H   0  0  0  0  0  0  0  0  0  0  0  0
   -1.5320    0.7020   -4.6310 H   0  0  0  0  0  0  0  0  0  0  0  0
   -0.3750    2.0460   -4.4860 H   0  0  0  0  0  0  0  0  0  0  0  0
   -6.1860    6.1170   -6.7570 H   0  0  0  0  0  0  0  0  0  0  0  0
   -8.4920    7.7550   -3.5420 H   0  0  0  0  0  0  0  0  0  0  0  0
   -8.0000    7.5950   -5.9610 H   0  0  0  0  0  0  0  0  0  0  0  0
  1  2  1  0  0  0  0
  1  8  2  0  0  0  0
  1  9  1  0  0  0  0
  2  4  1  0  0  0  0
  3  7  1  0  0  0  0
  3 11  2  0  0  0  0
  3 14  1  0  0  0  0
  4  5  2  0  0  0  0
  4 13  1  0  0  0  0
  5 10  1  0  0  0  0
  5 21  1  0  0  0  0
  6  7  1  0  0  0  0
  6 15  2  0  0  0  0
  7 32  1  0  0  0  0
  9 24  2  0  0  0  0
  9 25  1  0  0  0  0
 10 17  2  0  0  0  0
 10 33  1  0  0  0  0
 12 18  2  0  0  0  0
 12 19  1  0  0  0  0
 12 34  1  0  0  0  0
 13 20  2  0  0  0  0
 13 35  1  0  0  0  0
 14 16  1  0  0  0  0
 14 36  1  0  0  0  0
 14 37  1  0  0  0  0
 15 17  1  0  0  0  0
 15 38  1  0  0  0  0
 16 18  1  0  0  0  0
 17 20  1  0  0  0  0
 18 26  1  0  0  0  0
 19 22  1  0  0  0  0
 19 27  2  0  0  0  0
 20 39  1  0  0  0  0
 21 28  1  0  0  0  0
 23 26  2  0  0  0  0
 23 27  1  0  0  0  0
 23 40  1  0  0  0  0
 24 29  1  0  0  0  0
 24 41  1  0  0  0  0
 25 30  2  0  0  0  0
 25 42  1  0  0  0  0
 26 43  1  0  0  0  0
 27 44  1  0  0  0  0
 28 45  1  0  0  0  0
 28 46  1  0  0  0  0
 28 47  1  0  0  0  0
 29 31  2  0  0  0  0
 29 48  1  0  0  0  0
 30 31  1  0  0  0  0
 30 49  1  0  0  0  0
 31 50  1  0  0  0  0
M  END
>  <$CLUSTER>
512

>  <INDEX>
590882

$$$$
InterBioScreen STOCK2S-27158
  MOE2020           3D

 34 36  0  0  0  0  0  0  0  0999 V2000
   -0.0300   -0.3230    0.4390 C   0  0  0  0  0  0  0  0  0  0  0  0
   -0.1700   -1.6750   -0.5980 S   0  0  0  0  0  0  0  0  0  0  0  0
   -0.0330    0.9780   -0.0280 N   0  0  0  0  0  0  0  0  0  0  0  0
    0.0810   -0.6350    1.7150 N   0  0  0  0  0  0  0  0  0  0  0  0
    0.0580   -2.0010    1.9260 N   0  0  0  0  0  0  0  0  0  0  0  0
   -0.0700   -2.6620    0.7970 C   0  0  0  0  0  0  0  0  0  0  0  0
   -0.1440    1.3860   -1.3500 C   0  0  0  0  0  0  0  0  0  0  0  0
   -0.1060    2.8900   -1.4560 C   0  0  0  0  0  0  0  0  0  0  0  0
   -0.2610    0.6920   -2.3560 O   0  0  0  0  0  0  0  0  0  0  0  0
   -0.1270   -4.1560    0.6970 C   0  0  0  0  0  0  0  0  0  0  0  0
    0.5260    3.7270   -0.5660 C   0  0  0  0  0  0  0  0  0  0  0  0
   -0.7240    3.4510   -2.6180 C   0  0  0  0  0  0  0  0  0  0  0  0
   -0.0880    5.6630   -1.8810 C   0  0  0  0  0  0  0  0  0  0  0  0
   -0.7140    4.8350   -2.8090 C   0  0  0  0  0  0  0  0  0  0  0  0
    0.5340    5.1090   -0.7620 C   0  0  0  0  0  0  0  0  0  0  0  0
   -0.1280    6.9710   -2.1350 F   0  0  0  0  0  0  0  0  0  0  0  0
   -1.5420   -4.6760    0.9000 C   0  0  0  0  0  0  0  0  0  0  0  0
   -2.4100   -4.8210   -0.1910 C   0  0  0  0  0  0  0  0  0  0  0  0
   -2.0050   -4.9950    2.1830 C   0  0  0  0  0  0  0  0  0  0  0  0
   -3.3090   -5.4540    2.3700 C   0  0  0  0  0  0  0  0  0  0  0  0
   -3.7130   -5.2800   -0.0010 C   0  0  0  0  0  0  0  0  0  0  0  0
   -4.1620   -5.5980    1.2790 C   0  0  0  0  0  0  0  0  0  0  0  0
    0.0550    1.7080    0.6650 H   0  0  0  0  0  0  0  0  0  0  0  0
    0.5210   -4.5870    1.4600 H   0  0  0  0  0  0  0  0  0  0  0  0
    0.2230   -4.4580   -0.2900 H   0  0  0  0  0  0  0  0  0  0  0  0
    1.0230    3.3090    0.2970 H   0  0  0  0  0  0  0  0  0  0  0  0
   -1.1970    2.8070   -3.3450 H   0  0  0  0  0  0  0  0  0  0  0  0
   -1.1920    5.2630   -3.6770 H   0  0  0  0  0  0  0  0  0  0  0  0
    1.0230    5.7510   -0.0450 H   0  0  0  0  0  0  0  0  0  0  0  0
   -2.0670   -4.5760   -1.1850 H   0  0  0  0  0  0  0  0  0  0  0  0
   -1.3480   -4.8850    3.0330 H   0  0  0  0  0  0  0  0  0  0  0  0
   -3.6570   -5.6980    3.3630 H   0  0  0  0  0  0  0  0  0  0  0  0
   -4.3750   -5.3890   -0.8470 H   0  0  0  0  0  0  0  0  0  0  0  0
   -5.1710   -5.9560    1.4250 H   0  0  0  0  0  0  0  0  0  0  0  0
  1  2  1  0  0  0  0
  1  3  1  0  0  0  0
  1  4  2  0  0  0  0
  2  6  1  0  0  0  0
  3  7  1  0  0  0  0
  3 23  1  0  0  0  0
  4  5  1  0  0  0  0
  5  6  2  0  0  0  0
  6 10  1  0  0  0  0
  7  8  1  0  0  0  0
  7  9  2  0  0  0  0
  8 11  1  0  0  0  0
  8 12  2  0  0  0  0
 10 17  1  0  0  0  0
 10 24  1  0  0  0  0
 10 25  1  0  0  0  0
 11 15  2  0  0  0  0
 11 26  1  0  0  0  0
 12 14  1  0  0  0  0
 12 27  1  0  0  0  0
 13 14  2  0  0  0  0
 13 15  1  0  0  0  0
 13 16  1  0  0  0  0
 14 28  1  0  0  0  0
 15 29  1  0  0  0  0
 17 18  1  0  0  0  0
 17 19  2  0  0  0  0
 18 21  2  0  0  0  0
 18 30  1  0  0  0  0
 19 20  1  0  0  0  0
 19 31  1  0  0  0  0
 20 22  2  0  0  0  0
 20 32  1  0  0  0  0
 21 22  1  0  0  0  0
 21 33  1  0  0  0  0
 22 34  1  0  0  0  0
M  END
>  <$CLUSTER>
513

>  <INDEX>
336564

$$$$
InterBioScreen STOCK4S-88797
  MOE2020           3D

 41 43  0  0  0  0  0  0  0  0999 V2000
    0.2080    0.2260    0.0440 N   0  0  0  0  0  0  0  0  0  0  0  0
    1.6110    0.0400   -0.0150 C   0  0  0  0  0  0  0  0  0  0  0  0
   -0.7430   -0.8230   -0.0080 C   0  0  0  0  0  0  0  0  0  0  0  0
   -0.1720   -2.1810   -0.2290 C   0  0  0  0  0  0  0  0  0  0  0  0
    2.0370   -1.2840   -0.0970 N   0  0  0  0  0  0  0  0  0  0  0  0
    1.2790   -2.4330   -0.2100 C   0  0  0  0  0  0  0  0  0  0  0  0
   -1.0330   -3.1870   -0.4400 C   0  0  0  0  0  0  0  0  0  0  0  0
   -0.2890    1.5810    0.1740 C   0  0  0  0  0  0  0  0  0  0  0  0
    2.4530    0.9420   -0.0530 O   0  0  0  0  0  0  0  0  0  0  0  0
   -1.9520   -0.6860    0.1720 O   0  0  0  0  0  0  0  0  0  0  0  0
   -0.8100   -4.5110   -0.6650 N   0  0  0  0  0  0  0  0  0  0  0  0
    1.7820   -3.5510   -0.2910 O   0  0  0  0  0  0  0  0  0  0  0  0
   -4.2750   -8.9350   -1.5790 C   0  0  0  0  0  0  0  0  0  0  0  0
   -3.3620   -7.7900   -1.3420 C   0  0  0  0  0  0  0  0  0  0  0  0
   -5.4910   -8.7550   -1.5940 O   0  0  0  0  0  0  0  0  0  0  0  0
    0.3510    2.5130    1.0090 C   0  0  0  0  0  0  0  0  0  0  0  0
   -1.4280    2.0040   -0.5340 C   0  0  0  0  0  0  0  0  0  0  0  0
   -3.9100   -6.5270   -1.1410 C   0  0  0  0  0  0  0  0  0  0  0  0
   -1.9800   -7.9530   -1.3190 C   0  0  0  0  0  0  0  0  0  0  0  0
   -1.6840   -5.5650   -0.8850 C   0  0  0  0  0  0  0  0  0  0  0  0
   -1.2580    4.2190    0.4220 C   0  0  0  0  0  0  0  0  0  0  0  0
   -3.0800   -5.4250   -0.9150 C   0  0  0  0  0  0  0  0  0  0  0  0
   -1.1520   -6.8510   -1.0920 C   0  0  0  0  0  0  0  0  0  0  0  0
   -1.9060    3.3120   -0.4110 C   0  0  0  0  0  0  0  0  0  0  0  0
   -0.1310    3.8190    1.1320 C   0  0  0  0  0  0  0  0  0  0  0  0
   -1.7790    5.4440    0.4820 F   0  0  0  0  0  0  0  0  0  0  0  0
   -3.6940  -10.3070   -1.8000 C   0  0  0  0  0  0  0  0  0  0  0  0
    3.0370   -1.4230   -0.0700 H   0  0  0  0  0  0  0  0  0  0  0  0
   -2.0740   -2.9000   -0.4300 H   0  0  0  0  0  0  0  0  0  0  0  0
    0.1660   -4.7720   -0.6730 H   0  0  0  0  0  0  0  0  0  0  0  0
    1.2280    2.2150    1.5640 H   0  0  0  0  0  0  0  0  0  0  0  0
   -1.9410    1.3090   -1.1820 H   0  0  0  0  0  0  0  0  0  0  0  0
   -4.9820   -6.3970   -1.1600 H   0  0  0  0  0  0  0  0  0  0  0  0
   -1.5480   -8.9300   -1.4760 H   0  0  0  0  0  0  0  0  0  0  0  0
   -3.5200   -4.4510   -0.7610 H   0  0  0  0  0  0  0  0  0  0  0  0
   -0.0810   -6.9890   -1.0750 H   0  0  0  0  0  0  0  0  0  0  0  0
   -2.7810    3.6200   -0.9640 H   0  0  0  0  0  0  0  0  0  0  0  0
    0.3730    4.5200    1.7810 H   0  0  0  0  0  0  0  0  0  0  0  0
   -2.6070  -10.2540   -1.7490 H   0  0  0  0  0  0  0  0  0  0  0  0
   -3.9940  -10.6750   -2.7810 H   0  0  0  0  0  0  0  0  0  0  0  0
   -4.0610  -10.9850   -1.0300 H   0  0  0  0  0  0  0  0  0  0  0  0
  1  2  1  0  0  0  0
  1  3  1  0  0  0  0
  1  8  1  0  0  0  0
  2  5  1  0  0  0  0
  2  9  2  0  0  0  0
  3  4  1  0  0  0  0
  3 10  2  0  0  0  0
  4  6  1  0  0  0  0
  4  7  2  0  0  0  0
  5  6  1  0  0  0  0
  5 28  1  0  0  0  0
  6 12  2  0  0  0  0
  7 11  1  0  0  0  0
  7 29  1  0  0  0  0
  8 16  1  0  0  0  0
  8 17  2  0  0  0  0
 11 20  1  0  0  0  0
 11 30  1  0  0  0  0
 13 14  1  0  0  0  0
 13 15  2  0  0  0  0
 13 27  1  0  0  0  0
 14 18  2  0  0  0  0
 14 19  1  0  0  0  0
 16 25  2  0  0  0  0
 16 31  1  0  0  0  0
 17 24  1  0  0  0  0
 17 32  1  0  0  0  0
 18 22  1  0  0  0  0
 18 33  1  0  0  0  0
 19 23  2  0  0  0  0
 19 34  1  0  0  0  0
 20 22  2  0  0  0  0
 20 23  1  0  0  0  0
 21 24  2  0  0  0  0
 21 25  1  0  0  0  0
 21 26  1  0  0  0  0
 22 35  1  0  0  0  0
 23 36  1  0  0  0  0
 24 37  1  0  0  0  0
 25 38  1  0  0  0  0
 27 39  1  0  0  0  0
 27 40  1  0  0  0  0
 27 41  1  0  0  0  0
M  END
>  <$CLUSTER>
514

>  <INDEX>
362288

$$$$
InterBioScreen STOCK4S-15128
  MOE2020           3D

 53 56  0  0  0  0  0  0  0  0999 V2000
   -0.1040   -0.1850   -1.0940 C   0  0  0  0  0  0  0  0  0  0  0  0
   -1.0110    0.7150   -1.6330 C   0  0  0  0  0  0  0  0  0  0  0  0
    0.3090   -0.8200   -3.3400 N   0  0  0  0  0  0  0  0  0  0  0  0
   -0.6240    0.1240   -3.7420 C   0  0  0  0  0  0  0  0  0  0  0  0
   -1.2980    0.9000   -2.9530 N   0  0  0  0  0  0  0  0  0  0  0  0
    0.6370   -1.0480   -2.0050 C   0  0  0  0  0  0  0  0  0  0  0  0
   -0.0520   -0.1100    0.3300 C   0  0  0  0  0  0  0  0  0  0  0  0
   -1.7930    1.6290   -0.4180 S   0  0  0  0  0  0  0  0  0  0  0  0
   -0.9360    0.8320    0.8140 C   0  0  0  0  0  0  0  0  0  0  0  0
   -0.8520    0.5270   -5.4610 S   0  0  0  0  0  0  0  0  0  0  0  0
    0.9060   -1.7510   -4.3430 C   0  0  0  0  0  0  0  0  0  0  0  0
    0.7820   -0.9160    1.2740 C   0  0  0  0  0  0  0  0  0  0  0  0
   -0.5190    0.1400    3.0630 O   0  0  0  0  0  0  0  0  0  0  0  0
    1.4560   -1.8830   -1.6360 O   0  0  0  0  0  0  0  0  0  0  0  0
    0.8110   -0.2750    2.6860 C   0  0  0  0  0  0  0  0  0  0  0  0
   -1.1130    1.1700    2.2540 C   0  0  0  0  0  0  0  0  0  0  0  0
   -2.9000    2.1550   -4.5980 C   0  0  0  0  0  0  0  0  0  0  0  0
   -2.5850    3.2970   -4.9280 O   0  0  0  0  0  0  0  0  0  0  0  0
   -2.6150    0.9240   -5.4480 C   0  0  0  0  0  0  0  0  0  0  0  0
    0.1240   -2.4990   -5.2380 C   0  0  0  0  0  0  0  0  0  0  0  0
    2.2980   -1.9310   -4.3510 C   0  0  0  0  0  0  0  0  0  0  0  0
   -3.5170    1.8940   -3.4160 N   0  0  0  0  0  0  0  0  0  0  0  0
    2.1100   -3.5320   -6.1510 C   0  0  0  0  0  0  0  0  0  0  0  0
    0.7250   -3.3800   -6.1400 C   0  0  0  0  0  0  0  0  0  0  0  0
    2.8950   -2.8110   -5.2560 C   0  0  0  0  0  0  0  0  0  0  0  0
    2.8140   -4.3710   -6.9830 O   0  0  0  0  0  0  0  0  0  0  0  0
    1.8080    0.8920    2.7720 C   0  0  0  0  0  0  0  0  0  0  0  0
    1.2230   -1.3400    3.7130 C   0  0  0  0  0  0  0  0  0  0  0  0
    2.0610   -5.1410   -7.9210 C   0  0  0  0  0  0  0  0  0  0  0  0
    3.0370   -5.9790   -8.7260 C   0  0  0  0  0  0  0  0  0  0  0  0
    1.8000   -0.9730    0.8890 H   0  0  0  0  0  0  0  0  0  0  0  0
    0.3650   -1.9200    1.3480 H   0  0  0  0  0  0  0  0  0  0  0  0
   -2.1760    1.2440    2.4820 H   0  0  0  0  0  0  0  0  0  0  0  0
   -0.6290    2.1230    2.4660 H   0  0  0  0  0  0  0  0  0  0  0  0
   -3.1670    0.0760   -5.0410 H   0  0  0  0  0  0  0  0  0  0  0  0
   -2.9430    1.1150   -6.4700 H   0  0  0  0  0  0  0  0  0  0  0  0
   -0.9510   -2.3920   -5.2290 H   0  0  0  0  0  0  0  0  0  0  0  0
    2.9130   -1.3840   -3.6510 H   0  0  0  0  0  0  0  0  0  0  0  0
   -3.7300    2.6490   -2.7800 H   0  0  0  0  0  0  0  0  0  0  0  0
   -3.7630    0.9450   -3.1740 H   0  0  0  0  0  0  0  0  0  0  0  0
    0.1150   -3.9440   -6.8300 H   0  0  0  0  0  0  0  0  0  0  0  0
    3.9680   -2.9320   -5.2610 H   0  0  0  0  0  0  0  0  0  0  0  0
    1.5320    1.6600    2.0490 H   0  0  0  0  0  0  0  0  0  0  0  0
    2.8120    0.5290    2.5510 H   0  0  0  0  0  0  0  0  0  0  0  0
    1.7870    1.3140    3.7770 H   0  0  0  0  0  0  0  0  0  0  0  0
    0.5270   -2.1770    3.6670 H   0  0  0  0  0  0  0  0  0  0  0  0
    1.2050   -0.9070    4.7130 H   0  0  0  0  0  0  0  0  0  0  0  0
    2.2300   -1.6920    3.4880 H   0  0  0  0  0  0  0  0  0  0  0  0
    1.5070   -4.4770   -8.5850 H   0  0  0  0  0  0  0  0  0  0  0  0
    1.3640   -5.7910   -7.3920 H   0  0  0  0  0  0  0  0  0  0  0  0
    3.7310   -5.3230   -9.2520 H   0  0  0  0  0  0  0  0  0  0  0  0
    2.4880   -6.5820   -9.4490 H   0  0  0  0  0  0  0  0  0  0  0  0
    3.5930   -6.6340   -8.0550 H   0  0  0  0  0  0  0  0  0  0  0  0
  1  2  2  0  0  0  0
  1  6  1  0  0  0  0
  1  7  1  0  0  0  0
  2  5  1  0  0  0  0
  2  8  1  0  0  0  0
  3  4  1  0  0  0  0
  3  6  1  0  0  0  0
  3 11  1  0  0  0  0
  4  5  2  0  0  0  0
  4 10  1  0  0  0  0
  6 14  2  0  0  0  0
  7  9  2  0  0  0  0
  7 12  1  0  0  0  0
  8  9  1  0  0  0  0
  9 16  1  0  0  0  0
 10 19  1  0  0  0  0
 11 20  2  0  0  0  0
 11 21  1  0  0  0  0
 12 15  1  0  0  0  0
 12 31  1  0  0  0  0
 12 32  1  0  0  0  0
 13 15  1  0  0  0  0
 13 16  1  0  0  0  0
 15 27  1  0  0  0  0
 15 28  1  0  0  0  0
 16 33  1  0  0  0  0
 16 34  1  0  0  0  0
 17 18  2  0  0  0  0
 17 19  1  0  0  0  0
 17 22  1  0  0  0  0
 19 35  1  0  0  0  0
 19 36  1  0  0  0  0
 20 24  1  0  0  0  0
 20 37  1  0  0  0  0
 21 25  2  0  0  0  0
 21 38  1  0  0  0  0
 22 39  1  0  0  0  0
 22 40  1  0  0  0  0
 23 24  2  0  0  0  0
 23 25  1  0  0  0  0
 23 26  1  0  0  0  0
 24 41  1  0  0  0  0
 25 42  1  0  0  0  0
 26 29  1  0  0  0  0
 27 43  1  0  0  0  0
 27 44  1  0  0  0  0
 27 45  1  0  0  0  0
 28 46  1  0  0  0  0
 28 47  1  0  0  0  0
 28 48  1  0  0  0  0
 29 30  1  0  0  0  0
 29 49  1  0  0  0  0
 29 50  1  0  0  0  0
 30 51  1  0  0  0  0
 30 52  1  0  0  0  0
 30 53  1  0  0  0  0
M  END
>  <$CLUSTER>
515

>  <INDEX>
350677

$$$$
ASDI 800001104
  MOE2020           3D

 44 46  0  0  0  0  0  0  0  0999 V2000
   -3.8220    1.3500   -1.7880 C   0  0  0  0  0  0  0  0  0  0  0  0
   -4.5940   -0.7090   -1.4340 N   0  0  0  0  0  0  0  0  0  0  0  0
   -2.7020    0.5280   -1.2070 C   0  0  0  0  0  0  0  0  0  0  0  0
   -4.9000    0.5520   -1.8930 C   0  0  0  0  0  0  0  0  0  0  0  0
   -3.2910   -0.8140   -1.0020 C   0  0  0  0  0  0  0  0  0  0  0  0
   -1.4750    0.9920   -0.9470 C   0  0  0  0  0  0  0  0  0  0  0  0
   -3.7400    2.7460   -2.1760 C   0  0  0  0  0  0  0  0  0  0  0  0
   -0.3970    0.1740   -0.3730 C   0  0  0  0  0  0  0  0  0  0  0  0
   -5.5080   -1.8780   -1.4090 C   0  0  0  0  0  0  0  0  0  0  0  0
   -2.7330   -1.8000   -0.5450 O   0  0  0  0  0  0  0  0  0  0  0  0
   -2.8040    3.2660   -2.7670 O   0  0  0  0  0  0  0  0  0  0  0  0
    0.4330    0.6490    0.6570 C   0  0  0  0  0  0  0  0  0  0  0  0
   -6.2670    0.8180   -2.4310 C   0  0  0  0  0  0  0  0  0  0  0  0
   -4.8170    3.4380   -1.7620 O   0  0  0  0  0  0  0  0  0  0  0  0
    0.2120    2.2110    1.3710 Cl  0  0  0  0  0  0  0  0  0  0  0  0
   -5.4650   -2.6730   -2.7040 C   0  0  0  0  0  0  0  0  0  0  0  0
   -0.1420   -1.1060   -0.8990 C   0  0  0  0  0  0  0  0  0  0  0  0
    1.4730   -0.1420    1.1600 C   0  0  0  0  0  0  0  0  0  0  0  0
   -4.8810    4.8340   -2.0610 C   0  0  0  0  0  0  0  0  0  0  0  0
   -4.6900   -3.8320   -2.7950 C   0  0  0  0  0  0  0  0  0  0  0  0
   -6.1770   -2.2270   -3.8240 C   0  0  0  0  0  0  0  0  0  0  0  0
    0.8960   -1.8930   -0.3950 C   0  0  0  0  0  0  0  0  0  0  0  0
    1.7020   -1.4130    0.6340 C   0  0  0  0  0  0  0  0  0  0  0  0
   -6.1410   -2.9570   -5.0150 C   0  0  0  0  0  0  0  0  0  0  0  0
   -4.6550   -4.5610   -3.9880 C   0  0  0  0  0  0  0  0  0  0  0  0
   -5.3830   -4.1250   -5.0950 C   0  0  0  0  0  0  0  0  0  0  0  0
   -1.2640    2.0270   -1.1720 H   0  0  0  0  0  0  0  0  0  0  0  0
   -5.2180   -2.5320   -0.5870 H   0  0  0  0  0  0  0  0  0  0  0  0
   -6.5260   -1.5230   -1.2490 H   0  0  0  0  0  0  0  0  0  0  0  0
   -6.8730   -0.0840   -2.3460 H   0  0  0  0  0  0  0  0  0  0  0  0
   -6.1950    1.1100   -3.4790 H   0  0  0  0  0  0  0  0  0  0  0  0
   -6.7320    1.6220   -1.8610 H   0  0  0  0  0  0  0  0  0  0  0  0
   -0.7570   -1.4850   -1.7020 H   0  0  0  0  0  0  0  0  0  0  0  0
    2.0990    0.2330    1.9560 H   0  0  0  0  0  0  0  0  0  0  0  0
   -5.8070    5.2490   -1.6620 H   0  0  0  0  0  0  0  0  0  0  0  0
   -4.8550    4.9760   -3.1410 H   0  0  0  0  0  0  0  0  0  0  0  0
   -4.0300    5.3420   -1.6070 H   0  0  0  0  0  0  0  0  0  0  0  0
   -4.1170   -4.1660   -1.9430 H   0  0  0  0  0  0  0  0  0  0  0  0
   -6.7550   -1.3170   -3.7670 H   0  0  0  0  0  0  0  0  0  0  0  0
    1.0740   -2.8760   -0.8040 H   0  0  0  0  0  0  0  0  0  0  0  0
    2.5030   -2.0240    1.0240 H   0  0  0  0  0  0  0  0  0  0  0  0
   -6.7000   -2.6170   -5.8740 H   0  0  0  0  0  0  0  0  0  0  0  0
   -4.0640   -5.4620   -4.0520 H   0  0  0  0  0  0  0  0  0  0  0  0
   -5.3600   -4.6920   -6.0140 H   0  0  0  0  0  0  0  0  0  0  0  0
  1  3  1  0  0  0  0
  1  4  2  0  0  0  0
  1  7  1  0  0  0  0
  2  4  1  0  0  0  0
  2  5  1  0  0  0  0
  2  9  1  0  0  0  0
  3  5  1  0  0  0  0
  3  6  2  0  0  0  0
  4 13  1  0  0  0  0
  5 10  2  0  0  0  0
  6  8  1  0  0  0  0
  6 27  1  0  0  0  0
  7 11  2  0  0  0  0
  7 14  1  0  0  0  0
  8 12  1  0  0  0  0
  8 17  2  0  0  0  0
  9 16  1  0  0  0  0
  9 28  1  0  0  0  0
  9 29  1  0  0  0  0
 12 15  1  0  0  0  0
 12 18  2  0  0  0  0
 13 30  1  0  0  0  0
 13 31  1  0  0  0  0
 13 32  1  0  0  0  0
 14 19  1  0  0  0  0
 16 20  1  0  0  0  0
 16 21  2  0  0  0  0
 17 22  1  0  0  0  0
 17 33  1  0  0  0  0
 18 23  1  0  0  0  0
 18 34  1  0  0  0  0
 19 35  1  0  0  0  0
 19 36  1  0  0  0  0
 19 37  1  0  0  0  0
 20 25  2  0  0  0  0
 20 38  1  0  0  0  0
 21 24  1  0  0  0  0
 21 39  1  0  0  0  0
 22 23  2  0  0  0  0
 22 40  1  0  0  0  0
 23 41  1  0  0  0  0
 24 26  2  0  0  0  0
 24 42  1  0  0  0  0
 25 26  1  0  0  0  0
 25 43  1  0  0  0  0
 26 44  1  0  0  0  0
M  END
>  <$CLUSTER>
516

>  <INDEX>
103040

$$$$
InterBioScreen STOCK4S-16653
  MOE2020           3D

 46 48  0  0  0  0  0  0  0  0999 V2000
    0.0280   -0.1440    0.2730 N   0  0  0  0  0  0  0  0  0  0  0  0
    1.0610    0.1120    1.2080 C   0  0  0  0  0  0  0  0  0  0  0  0
   -0.1930    0.6100   -0.9050 C   0  0  0  0  0  0  0  0  0  0  0  0
    0.8140    1.6760   -1.1690 C   0  0  0  0  0  0  0  0  0  0  0  0
    1.8680    1.2120    0.9220 N   0  0  0  0  0  0  0  0  0  0  0  0
    1.8500    2.0360   -0.1860 C   0  0  0  0  0  0  0  0  0  0  0  0
   -0.8680   -1.2510    0.5440 C   0  0  0  0  0  0  0  0  0  0  0  0
    1.0050    5.2280   -4.1770 C   0  0  0  0  0  0  0  0  0  0  0  0
   -1.3050   -2.0970   -0.4900 C   0  0  0  0  0  0  0  0  0  0  0  0
    0.7410    2.3180   -2.3450 C   0  0  0  0  0  0  0  0  0  0  0  0
    1.3220   -0.5800    2.1960 O   0  0  0  0  0  0  0  0  0  0  0  0
   -1.1610    0.4790   -1.6530 O   0  0  0  0  0  0  0  0  0  0  0  0
   -2.1680   -3.1650   -0.2290 C   0  0  0  0  0  0  0  0  0  0  0  0
    2.6340    2.9700   -0.3270 O   0  0  0  0  0  0  0  0  0  0  0  0
   -1.3270   -1.5110    1.8460 C   0  0  0  0  0  0  0  0  0  0  0  0
    1.5080    3.3200   -2.8550 N   0  0  0  0  0  0  0  0  0  0  0  0
   -2.6120   -3.4060    1.0670 C   0  0  0  0  0  0  0  0  0  0  0  0
    1.3350    3.8930   -4.0840 N   0  0  0  0  0  0  0  0  0  0  0  0
    0.8600    6.0060   -3.2330 O   0  0  0  0  0  0  0  0  0  0  0  0
    0.8460    5.6790   -5.6080 C   0  0  0  0  0  0  0  0  0  0  0  0
   -2.1930   -2.5780    2.1040 C   0  0  0  0  0  0  0  0  0  0  0  0
   -2.6120   -4.0490   -1.3510 C   0  0  0  0  0  0  0  0  0  0  0  0
   -3.5340   -4.5460    1.3470 C   0  0  0  0  0  0  0  0  0  0  0  0
    0.4680    4.8600   -6.6380 C   0  0  0  0  0  0  0  0  0  0  0  0
    1.0410    7.0710   -5.8420 C   0  0  0  0  0  0  0  0  0  0  0  0
    0.8860    7.5750   -7.1350 C   0  0  0  0  0  0  0  0  0  0  0  0
    0.3140    5.3700   -7.9280 C   0  0  0  0  0  0  0  0  0  0  0  0
    0.5250    6.7250   -8.1780 C   0  0  0  0  0  0  0  0  0  0  0  0
    2.5610    1.4370    1.6210 H   0  0  0  0  0  0  0  0  0  0  0  0
   -0.9690   -1.9190   -1.5010 H   0  0  0  0  0  0  0  0  0  0  0  0
   -0.0570    1.9850   -2.9930 H   0  0  0  0  0  0  0  0  0  0  0  0
   -1.0060   -0.8770    2.6600 H   0  0  0  0  0  0  0  0  0  0  0  0
    2.2630    3.6670   -2.2810 H   0  0  0  0  0  0  0  0  0  0  0  0
    1.4490    3.3400   -4.9210 H   0  0  0  0  0  0  0  0  0  0  0  0
   -2.5380   -2.7600    3.1110 H   0  0  0  0  0  0  0  0  0  0  0  0
   -2.1640   -3.7060   -2.2830 H   0  0  0  0  0  0  0  0  0  0  0  0
   -3.6980   -4.0120   -1.4350 H   0  0  0  0  0  0  0  0  0  0  0  0
   -2.2980   -5.0740   -1.1520 H   0  0  0  0  0  0  0  0  0  0  0  0
   -3.7680   -4.5710    2.4110 H   0  0  0  0  0  0  0  0  0  0  0  0
   -3.0540   -5.4810    1.0580 H   0  0  0  0  0  0  0  0  0  0  0  0
   -4.4540   -4.4180    0.7760 H   0  0  0  0  0  0  0  0  0  0  0  0
    0.2880    3.8120   -6.4510 H   0  0  0  0  0  0  0  0  0  0  0  0
    1.3060    7.7290   -5.0280 H   0  0  0  0  0  0  0  0  0  0  0  0
    1.0460    8.6260   -7.3270 H   0  0  0  0  0  0  0  0  0  0  0  0
    0.0300    4.7120   -8.7360 H   0  0  0  0  0  0  0  0  0  0  0  0
    0.4090    7.1150   -9.1780 H   0  0  0  0  0  0  0  0  0  0  0  0
  1  2  1  0  0  0  0
  1  3  1  0  0  0  0
  1  7  1  0  0  0  0
  2  5  1  0  0  0  0
  2 11  2  0  0  0  0
  3  4  1  0  0  0  0
  3 12  2  0  0  0  0
  4  6  1  0  0  0  0
  4 10  2  0  0  0  0
  5  6  1  0  0  0  0
  5 29  1  0  0  0  0
  6 14  2  0  0  0  0
  7  9  1  0  0  0  0
  7 15  2  0  0  0  0
  8 18  1  0  0  0  0
  8 19  2  0  0  0  0
  8 20  1  0  0  0  0
  9 13  2  0  0  0  0
  9 30  1  0  0  0  0
 10 16  1  0  0  0  0
 10 31  1  0  0  0  0
 13 17  1  0  0  0  0
 13 22  1  0  0  0  0
 15 21  1  0  0  0  0
 15 32  1  0  0  0  0
 16 18  1  0  0  0  0
 16 33  1  0  0  0  0
 17 21  2  0  0  0  0
 17 23  1  0  0  0  0
 18 34  1  0  0  0  0
 20 24  1  0  0  0  0
 20 25  2  0  0  0  0
 21 35  1  0  0  0  0
 22 36  1  0  0  0  0
 22 37  1  0  0  0  0
 22 38  1  0  0  0  0
 23 39  1  0  0  0  0
 23 40  1  0  0  0  0
 23 41  1  0  0  0  0
 24 27  2  0  0  0  0
 24 42  1  0  0  0  0
 25 26  1  0  0  0  0
 25 43  1  0  0  0  0
 26 28  2  0  0  0  0
 26 44  1  0  0  0  0
 27 28  1  0  0  0  0
 27 45  1  0  0  0  0
 28 46  1  0  0  0  0
M  END
>  <$CLUSTER>
517

>  <INDEX>
350932

$$$$
InterBioScreen STOCK4S-28115
  MOE2020           3D

 47 49  0  0  0  0  0  0  0  0999 V2000
   -0.0390    0.3300    0.0590 N   0  0  0  0  0  0  0  0  0  0  0  0
    0.6510    1.5670    0.0870 C   0  0  0  0  0  0  0  0  0  0  0  0
    0.5870   -0.9360   -0.0510 C   0  0  0  0  0  0  0  0  0  0  0  0
    2.0590   -0.8950   -0.2500 C   0  0  0  0  0  0  0  0  0  0  0  0
    2.0400    1.4800    0.0290 N   0  0  0  0  0  0  0  0  0  0  0  0
    2.8300    0.3590   -0.1380 C   0  0  0  0  0  0  0  0  0  0  0  0
   -1.4840    0.3600    0.1580 C   0  0  0  0  0  0  0  0  0  0  0  0
    2.7500   -2.0080   -0.5330 C   0  0  0  0  0  0  0  0  0  0  0  0
   -2.1350    1.2480    1.0310 C   0  0  0  0  0  0  0  0  0  0  0  0
    2.3310   -3.2920   -0.7030 N   0  0  0  0  0  0  0  0  0  0  0  0
    3.3020   -4.2200   -0.9900 N   0  0  0  0  0  0  0  0  0  0  0  0
    0.1230    2.6830    0.1040 O   0  0  0  0  0  0  0  0  0  0  0  0
    0.0100   -2.0150    0.0700 O   0  0  0  0  0  0  0  0  0  0  0  0
   -3.5290    1.2710    1.1250 C   0  0  0  0  0  0  0  0  0  0  0  0
    4.0560    0.4130   -0.1940 O   0  0  0  0  0  0  0  0  0  0  0  0
   -2.2780   -0.5020   -0.6190 C   0  0  0  0  0  0  0  0  0  0  0  0
   -4.2980    0.4110    0.3470 C   0  0  0  0  0  0  0  0  0  0  0  0
   -3.6730   -0.4750   -0.5250 C   0  0  0  0  0  0  0  0  0  0  0  0
    2.9930   -4.8340   -2.2920 C   0  0  0  0  0  0  0  0  0  0  0  0
    3.2950   -5.2460    0.0670 C   0  0  0  0  0  0  0  0  0  0  0  0
   -4.1910    2.2260    2.0660 C   0  0  0  0  0  0  0  0  0  0  0  0
   -5.7870    0.4360    0.4460 C   0  0  0  0  0  0  0  0  0  0  0  0
    4.0190   -5.9270   -2.6680 C   0  0  0  0  0  0  0  0  0  0  0  0
    4.3390   -6.3630   -0.2170 C   0  0  0  0  0  0  0  0  0  0  0  0
    4.1070   -6.9960   -1.5850 C   0  0  0  0  0  0  0  0  0  0  0  0
    2.5370    2.3550    0.1220 H   0  0  0  0  0  0  0  0  0  0  0  0
    3.8140   -1.8620   -0.6450 H   0  0  0  0  0  0  0  0  0  0  0  0
   -1.5490    1.9230    1.6380 H   0  0  0  0  0  0  0  0  0  0  0  0
    1.3570   -3.5490   -0.6220 H   0  0  0  0  0  0  0  0  0  0  0  0
   -1.8040   -1.1950   -1.2980 H   0  0  0  0  0  0  0  0  0  0  0  0
   -4.2670   -1.1440   -1.1310 H   0  0  0  0  0  0  0  0  0  0  0  0
    2.0010   -5.2830   -2.2440 H   0  0  0  0  0  0  0  0  0  0  0  0
    3.0050   -4.0600   -3.0590 H   0  0  0  0  0  0  0  0  0  0  0  0
    3.5320   -4.7740    1.0210 H   0  0  0  0  0  0  0  0  0  0  0  0
    2.3030   -5.6940    0.1200 H   0  0  0  0  0  0  0  0  0  0  0  0
   -3.4310    2.8110    2.5840 H   0  0  0  0  0  0  0  0  0  0  0  0
   -4.7790    1.6690    2.7950 H   0  0  0  0  0  0  0  0  0  0  0  0
   -4.8450    2.8940    1.5050 H   0  0  0  0  0  0  0  0  0  0  0  0
   -6.2090   -0.3030   -0.2350 H   0  0  0  0  0  0  0  0  0  0  0  0
   -6.1520    1.4270    0.1780 H   0  0  0  0  0  0  0  0  0  0  0  0
   -6.0870    0.2020    1.4670 H   0  0  0  0  0  0  0  0  0  0  0  0
    3.7140   -6.3940   -3.6050 H   0  0  0  0  0  0  0  0  0  0  0  0
    4.9990   -5.4670   -2.7940 H   0  0  0  0  0  0  0  0  0  0  0  0
    5.3390   -5.9310   -0.1900 H   0  0  0  0  0  0  0  0  0  0  0  0
    4.2550   -7.1330    0.5500 H   0  0  0  0  0  0  0  0  0  0  0  0
    4.9340   -7.6680   -1.8130 H   0  0  0  0  0  0  0  0  0  0  0  0
    3.1750   -7.5610   -1.5640 H   0  0  0  0  0  0  0  0  0  0  0  0
  1  2  1  0  0  0  0
  1  3  1  0  0  0  0
  1  7  1  0  0  0  0
  2  5  1  0  0  0  0
  2 12  2  0  0  0  0
  3  4  1  0  0  0  0
  3 13  2  0  0  0  0
  4  6  1  0  0  0  0
  4  8  2  0  0  0  0
  5  6  1  0  0  0  0
  5 26  1  0  0  0  0
  6 15  2  0  0  0  0
  7  9  1  0  0  0  0
  7 16  2  0  0  0  0
  8 10  1  0  0  0  0
  8 27  1  0  0  0  0
  9 14  2  0  0  0  0
  9 28  1  0  0  0  0
 10 11  1  0  0  0  0
 10 29  1  0  0  0  0
 11 19  1  0  0  0  0
 11 20  1  0  0  0  0
 14 17  1  0  0  0  0
 14 21  1  0  0  0  0
 16 18  1  0  0  0  0
 16 30  1  0  0  0  0
 17 18  2  0  0  0  0
 17 22  1  0  0  0  0
 18 31  1  0  0  0  0
 19 23  1  0  0  0  0
 19 32  1  0  0  0  0
 19 33  1  0  0  0  0
 20 24  1  0  0  0  0
 20 34  1  0  0  0  0
 20 35  1  0  0  0  0
 21 36  1  0  0  0  0
 21 37  1  0  0  0  0
 21 38  1  0  0  0  0
 22 39  1  0  0  0  0
 22 40  1  0  0  0  0
 22 41  1  0  0  0  0
 23 25  1  0  0  0  0
 23 42  1  0  0  0  0
 23 43  1  0  0  0  0
 24 25  1  0  0  0  0
 24 44  1  0  0  0  0
 24 45  1  0  0  0  0
 25 46  1  0  0  0  0
 25 47  1  0  0  0  0
M  END
>  <$CLUSTER>
518

>  <INDEX>
353000

$$$$
InterBioScreen STOCK1S-53090
  MOE2020           3D

 41 44  0  0  0  0  0  0  0  0999 V2000
    0.4360   -1.1090    0.0800 C   0  0  0  0  0  0  0  0  0  0  0  0
   -0.7120   -0.3620    0.1670 C   0  0  0  0  0  0  0  0  0  0  0  0
    1.4590   -0.2470   -0.2010 N   0  0  0  0  0  0  0  0  0  0  0  0
    0.4740   -2.5310    0.2620 C   0  0  0  0  0  0  0  0  0  0  0  0
   -1.9690   -0.9210    0.4460 N   0  0  0  0  0  0  0  0  0  0  0  0
   -0.4080    0.9960   -0.0630 C   0  0  0  0  0  0  0  0  0  0  0  0
   -0.7990   -3.0240    0.5350 N   0  0  0  0  0  0  0  0  0  0  0  0
    0.9730    1.0450   -0.2940 C   0  0  0  0  0  0  0  0  0  0  0  0
   -1.9240   -2.2100    0.6100 C   0  0  0  0  0  0  0  0  0  0  0  0
   -1.1480    2.1940   -0.1010 C   0  0  0  0  0  0  0  0  0  0  0  0
    1.4810   -3.2260    0.1910 O   0  0  0  0  0  0  0  0  0  0  0  0
   -0.9800   -4.4840    0.7670 C   0  0  0  0  0  0  0  0  0  0  0  0
    1.6470    2.2420   -0.5620 C   0  0  0  0  0  0  0  0  0  0  0  0
   -0.4830    3.3970   -0.3690 C   0  0  0  0  0  0  0  0  0  0  0  0
   -1.2690   -5.2220   -0.5330 C   0  0  0  0  0  0  0  0  0  0  0  0
    0.8920    3.4180   -0.5960 C   0  0  0  0  0  0  0  0  0  0  0  0
   -1.4640   -6.7000   -0.2980 C   0  0  0  0  0  0  0  0  0  0  0  0
   -1.3160    4.5040   -0.3800 O   0  0  0  0  0  0  0  0  0  0  0  0
   -2.7370   -7.2170   -0.0170 C   0  0  0  0  0  0  0  0  0  0  0  0
   -0.3720   -7.5790   -0.3390 C   0  0  0  0  0  0  0  0  0  0  0  0
   -0.7100    5.7630   -0.6470 C   0  0  0  0  0  0  0  0  0  0  0  0
   -0.5510   -8.9440   -0.1110 C   0  0  0  0  0  0  0  0  0  0  0  0
   -2.9140   -8.5820    0.2110 C   0  0  0  0  0  0  0  0  0  0  0  0
   -1.8210   -9.4450    0.1630 C   0  0  0  0  0  0  0  0  0  0  0  0
    2.4260   -0.5140   -0.3230 H   0  0  0  0  0  0  0  0  0  0  0  0
   -2.8610   -2.7010    0.8280 H   0  0  0  0  0  0  0  0  0  0  0  0
   -2.2140    2.1850    0.0740 H   0  0  0  0  0  0  0  0  0  0  0  0
   -1.8140   -4.6330    1.4520 H   0  0  0  0  0  0  0  0  0  0  0  0
   -0.0690   -4.8880    1.2090 H   0  0  0  0  0  0  0  0  0  0  0  0
    2.7130    2.2570   -0.7360 H   0  0  0  0  0  0  0  0  0  0  0  0
   -0.4310   -5.0790   -1.2150 H   0  0  0  0  0  0  0  0  0  0  0  0
   -2.1750   -4.8120   -0.9790 H   0  0  0  0  0  0  0  0  0  0  0  0
    1.3820    4.3580   -0.8020 H   0  0  0  0  0  0  0  0  0  0  0  0
   -3.5880   -6.5530    0.0230 H   0  0  0  0  0  0  0  0  0  0  0  0
    0.6160   -7.1960   -0.5490 H   0  0  0  0  0  0  0  0  0  0  0  0
   -1.4700    6.5440   -0.6260 H   0  0  0  0  0  0  0  0  0  0  0  0
   -0.2400    5.7390   -1.6300 H   0  0  0  0  0  0  0  0  0  0  0  0
    0.0450    5.9710    0.1110 H   0  0  0  0  0  0  0  0  0  0  0  0
    0.2960   -9.6130   -0.1470 H   0  0  0  0  0  0  0  0  0  0  0  0
   -3.8990   -8.9700    0.4250 H   0  0  0  0  0  0  0  0  0  0  0  0
   -1.9590  -10.5020    0.3380 H   0  0  0  0  0  0  0  0  0  0  0  0
  1  2  2  0  0  0  0
  1  3  1  0  0  0  0
  1  4  1  0  0  0  0
  2  5  1  0  0  0  0
  2  6  1  0  0  0  0
  3  8  1  0  0  0  0
  3 25  1  0  0  0  0
  4  7  1  0  0  0  0
  4 11  2  0  0  0  0
  5  9  2  0  0  0  0
  6  8  2  0  0  0  0
  6 10  1  0  0  0  0
  7  9  1  0  0  0  0
  7 12  1  0  0  0  0
  8 13  1  0  0  0  0
  9 26  1  0  0  0  0
 10 14  2  0  0  0  0
 10 27  1  0  0  0  0
 12 15  1  0  0  0  0
 12 28  1  0  0  0  0
 12 29  1  0  0  0  0
 13 16  2  0  0  0  0
 13 30  1  0  0  0  0
 14 16  1  0  0  0  0
 14 18  1  0  0  0  0
 15 17  1  0  0  0  0
 15 31  1  0  0  0  0
 15 32  1  0  0  0  0
 16 33  1  0  0  0  0
 17 19  1  0  0  0  0
 17 20  2  0  0  0  0
 18 21  1  0  0  0  0
 19 23  2  0  0  0  0
 19 34  1  0  0  0  0
 20 22  1  0  0  0  0
 20 35  1  0  0  0  0
 21 36  1  0  0  0  0
 21 37  1  0  0  0  0
 21 38  1  0  0  0  0
 22 24  2  0  0  0  0
 22 39  1  0  0  0  0
 23 24  1  0  0  0  0
 23 40  1  0  0  0  0
 24 41  1  0  0  0  0
M  END
>  <$CLUSTER>
519

>  <INDEX>
331754

$$$$
InterBioScreen STOCK2S-50217
  MOE2020           3D

 51 54  0  0  1  0  0  0  0  0999 V2000
   -0.9870   -0.3560    0.2480 N   0  0  0  0  0  0  0  0  0  0  0  0
   -0.0830    0.1170    1.1600 C   0  0  0  0  0  0  0  0  0  0  0  0
   -2.1610   -0.7310    0.7860 N   0  0  0  0  0  0  0  0  0  0  0  0
   -1.9870   -0.4790    2.0880 C   0  0  0  0  0  0  0  0  0  0  0  0
   -0.7450   -0.4560   -1.1850 C   0  0  3  0  0  0  0  0  0  0  0  0
   -0.7130    0.0530    2.3790 C   0  0  0  0  0  0  0  0  0  0  0  0
    1.1390    0.5410    0.7740 N   0  0  0  0  0  0  0  0  0  0  0  0
   -0.4150   -1.8930   -1.5850 C   0  0  0  0  0  0  0  0  0  0  0  0
   -3.0580   -0.7500    3.0610 C   0  0  0  0  0  0  0  0  0  0  0  0
    0.3710    0.5310   -1.5720 C   0  0  0  0  0  0  0  0  0  0  0  0
    1.5750    0.4290   -0.6160 C   0  0  3  0  0  0  0  0  0  0  0  0
   -4.2140   -1.2700    2.5210 N   0  0  0  0  0  0  0  0  0  0  0  0
   -5.4010   -1.6250    3.2670 C   0  0  3  0  0  0  0  0  0  0  0  0
   -2.9240   -0.5260    4.2620 O   0  0  0  0  0  0  0  0  0  0  0  0
    2.5970    1.5220   -0.9180 C   0  0  0  0  0  0  0  0  0  0  0  0
   -0.2330   -1.9740   -2.9890 F   0  0  0  0  0  0  0  0  0  0  0  0
   -1.3770   -2.8000   -1.3200 F   0  0  0  0  0  0  0  0  0  0  0  0
    0.7600   -2.3710   -1.0780 F   0  0  0  0  0  0  0  0  0  0  0  0
   -6.6520   -1.4390    2.4150 C   0  0  0  0  0  0  0  0  0  0  0  0
   -5.2960   -3.0590    3.7780 C   0  0  0  0  0  0  0  0  0  0  0  0
    2.3720    2.8740   -0.6230 C   0  0  0  0  0  0  0  0  0  0  0  0
    3.8030    1.1830   -1.5870 C   0  0  0  0  0  0  0  0  0  0  0  0
   -6.7590   -1.9820    1.1230 C   0  0  0  0  0  0  0  0  0  0  0  0
   -7.7680   -0.7490    2.9380 C   0  0  0  0  0  0  0  0  0  0  0  0
    4.7410    2.1670   -1.9120 C   0  0  0  0  0  0  0  0  0  0  0  0
    3.3110    3.8560   -0.9490 C   0  0  0  0  0  0  0  0  0  0  0  0
   -8.9360   -0.5990    2.1830 C   0  0  0  0  0  0  0  0  0  0  0  0
   -7.9260   -1.8320    0.3700 C   0  0  0  0  0  0  0  0  0  0  0  0
    4.4950    3.5010   -1.5940 C   0  0  0  0  0  0  0  0  0  0  0  0
   -9.0140   -1.1400    0.9010 C   0  0  0  0  0  0  0  0  0  0  0  0
   -1.6480   -0.1870   -1.7330 H   0  0  0  0  0  0  0  0  0  0  0  0
   -0.3220    0.3440    3.3430 H   0  0  0  0  0  0  0  0  0  0  0  0
    1.7630    0.9430    1.4590 H   0  0  0  0  0  0  0  0  0  0  0  0
   -0.0250    1.5460   -1.5350 H   0  0  0  0  0  0  0  0  0  0  0  0
    0.7040    0.3080   -2.5860 H   0  0  0  0  0  0  0  0  0  0  0  0
    2.0400   -0.5450   -0.7670 H   0  0  0  0  0  0  0  0  0  0  0  0
   -4.2340   -1.4150    1.5220 H   0  0  0  0  0  0  0  0  0  0  0  0
   -5.4810   -0.9600    4.1270 H   0  0  0  0  0  0  0  0  0  0  0  0
   -5.2150   -3.7410    2.9320 H   0  0  0  0  0  0  0  0  0  0  0  0
   -6.1860   -3.3040    4.3580 H   0  0  0  0  0  0  0  0  0  0  0  0
   -4.4130   -3.1560    4.4090 H   0  0  0  0  0  0  0  0  0  0  0  0
    1.4540    3.1630   -0.1330 H   0  0  0  0  0  0  0  0  0  0  0  0
    3.9980    0.1530   -1.8480 H   0  0  0  0  0  0  0  0  0  0  0  0
   -5.9240   -2.5250    0.7050 H   0  0  0  0  0  0  0  0  0  0  0  0
   -7.7190   -0.3320    3.9330 H   0  0  0  0  0  0  0  0  0  0  0  0
    5.6590    1.8930   -2.4110 H   0  0  0  0  0  0  0  0  0  0  0  0
    3.1200    4.8900   -0.7010 H   0  0  0  0  0  0  0  0  0  0  0  0
   -9.7790   -0.0630    2.5940 H   0  0  0  0  0  0  0  0  0  0  0  0
   -7.9860   -2.2520   -0.6230 H   0  0  0  0  0  0  0  0  0  0  0  0
    5.2210    4.2600   -1.8470 H   0  0  0  0  0  0  0  0  0  0  0  0
   -9.9160   -1.0230    0.3190 H   0  0  0  0  0  0  0  0  0  0  0  0
  1  2  1  0  0  0  0
  1  3  1  0  0  0  0
  1  5  1  0  0  0  0
  2  6  2  0  0  0  0
  2  7  1  0  0  0  0
  3  4  2  0  0  0  0
  4  6  1  0  0  0  0
  4  9  1  0  0  0  0
  5  8  1  0  0  0  0
  5 10  1  0  0  0  0
  5 31  1  0  0  0  0
  6 32  1  0  0  0  0
  7 11  1  0  0  0  0
  7 33  1  0  0  0  0
  8 16  1  0  0  0  0
  8 17  1  0  0  0  0
  8 18  1  0  0  0  0
  9 12  1  0  0  0  0
  9 14  2  0  0  0  0
 10 11  1  0  0  0  0
 10 34  1  0  0  0  0
 10 35  1  0  0  0  0
 11 15  1  0  0  0  0
 11 36  1  0  0  0  0
 12 13  1  0  0  0  0
 12 37  1  0  0  0  0
 13 19  1  0  0  0  0
 13 20  1  0  0  0  0
 13 38  1  0  0  0  0
 15 21  1  0  0  0  0
 15 22  2  0  0  0  0
 19 23  1  0  0  0  0
 19 24  2  0  0  0  0
 20 39  1  0  0  0  0
 20 40  1  0  0  0  0
 20 41  1  0  0  0  0
 21 26  2  0  0  0  0
 21 42  1  0  0  0  0
 22 25  1  0  0  0  0
 22 43  1  0  0  0  0
 23 28  2  0  0  0  0
 23 44  1  0  0  0  0
 24 27  1  0  0  0  0
 24 45  1  0  0  0  0
 25 29  2  0  0  0  0
 25 46  1  0  0  0  0
 26 29  1  0  0  0  0
 26 47  1  0  0  0  0
 27 30  2  0  0  0  0
 27 48  1  0  0  0  0
 28 30  1  0  0  0  0
 28 49  1  0  0  0  0
 29 50  1  0  0  0  0
 30 51  1  0  0  0  0
M  END
>  <$CLUSTER>
520

>  <INDEX>
338271

$$$$
InterBioScreen STOCK3S-07953
  MOE2020           3D

 40 42  0  0  0  0  0  0  0  0999 V2000
   -1.9210   -0.4700    0.0410 N   0  0  0  0  0  0  0  0  0  0  0  0
    3.5750    0.4630   -0.8310 C   0  0  0  0  0  0  0  0  0  0  0  0
   -2.0200    0.1470    1.1970 C   0  0  0  0  0  0  0  0  0  0  0  0
    0.1070    0.3810    0.6370 C   0  0  0  0  0  0  0  0  0  0  0  0
    2.1220    0.2000   -0.6160 C   0  0  0  0  0  0  0  0  0  0  0  0
   -0.8250    0.6760    1.5980 N   0  0  0  0  0  0  0  0  0  0  0  0
    8.4840    1.0230    2.6460 C   0  0  0  0  0  0  0  0  0  0  0  0
    7.8040    1.0950    1.4030 C   0  0  0  0  0  0  0  0  0  0  0  0
   -0.6010   -0.3360   -0.3240 C   0  0  0  0  0  0  0  0  0  0  0  0
    1.4680    0.6690    0.5280 C   0  0  0  0  0  0  0  0  0  0  0  0
    5.7090    0.9150    0.2720 N   0  0  0  0  0  0  0  0  0  0  0  0
    9.8720    1.2490    2.6660 C   0  0  0  0  0  0  0  0  0  0  0  0
    4.3410    0.6610    0.2970 N   0  0  0  0  0  0  0  0  0  0  0  0
    4.0400    0.4830   -1.9680 O   0  0  0  0  0  0  0  0  0  0  0  0
    1.4380   -0.5220   -1.5970 C   0  0  0  0  0  0  0  0  0  0  0  0
    6.3250    0.8570    1.3600 C   0  0  0  0  0  0  0  0  0  0  0  0
    0.0710   -0.7990   -1.4670 C   0  0  0  0  0  0  0  0  0  0  0  0
    8.4990    1.3800    0.2390 C   0  0  0  0  0  0  0  0  0  0  0  0
   10.5590    1.5370    1.4840 C   0  0  0  0  0  0  0  0  0  0  0  0
    9.8750    1.6030    0.2720 C   0  0  0  0  0  0  0  0  0  0  0  0
    7.7260    0.7320    3.7760 O   0  0  0  0  0  0  0  0  0  0  0  0
   11.9140    1.7350    1.6540 O   0  0  0  0  0  0  0  0  0  0  0  0
    8.4220    0.6630    5.0270 C   0  0  0  0  0  0  0  0  0  0  0  0
   12.6680    2.0330    0.4840 C   0  0  0  0  0  0  0  0  0  0  0  0
   -2.9360    0.2270    1.7630 H   0  0  0  0  0  0  0  0  0  0  0  0
   -0.6580    1.1920    2.4500 H   0  0  0  0  0  0  0  0  0  0  0  0
    1.9910    1.2270    1.2900 H   0  0  0  0  0  0  0  0  0  0  0  0
   10.4100    1.2000    3.6010 H   0  0  0  0  0  0  0  0  0  0  0  0
    3.8820    0.6190    1.1960 H   0  0  0  0  0  0  0  0  0  0  0  0
    1.9710   -0.8720   -2.4690 H   0  0  0  0  0  0  0  0  0  0  0  0
    5.7890    0.6350    2.2710 H   0  0  0  0  0  0  0  0  0  0  0  0
   -0.4540   -1.3560   -2.2290 H   0  0  0  0  0  0  0  0  0  0  0  0
    7.9710    1.4300   -0.7020 H   0  0  0  0  0  0  0  0  0  0  0  0
   10.4090    1.8260   -0.6400 H   0  0  0  0  0  0  0  0  0  0  0  0
    7.7150    0.4290    5.8230 H   0  0  0  0  0  0  0  0  0  0  0  0
    8.8970    1.6230    5.2320 H   0  0  0  0  0  0  0  0  0  0  0  0
    9.1830   -0.1160    4.9770 H   0  0  0  0  0  0  0  0  0  0  0  0
   13.7160    2.1660    0.7510 H   0  0  0  0  0  0  0  0  0  0  0  0
   12.2890    2.9490    0.0310 H   0  0  0  0  0  0  0  0  0  0  0  0
   12.5760    1.2120   -0.2270 H   0  0  0  0  0  0  0  0  0  0  0  0
  1  3  2  0  0  0  0
  1  9  1  0  0  0  0
  2  5  1  0  0  0  0
  2 13  1  0  0  0  0
  2 14  2  0  0  0  0
  3  6  1  0  0  0  0
  3 25  1  0  0  0  0
  4  6  1  0  0  0  0
  4  9  1  0  0  0  0
  4 10  2  0  0  0  0
  5 10  1  0  0  0  0
  5 15  2  0  0  0  0
  6 26  1  0  0  0  0
  7  8  2  0  0  0  0
  7 12  1  0  0  0  0
  7 21  1  0  0  0  0
  8 16  1  0  0  0  0
  8 18  1  0  0  0  0
  9 17  2  0  0  0  0
 10 27  1  0  0  0  0
 11 13  1  0  0  0  0
 11 16  2  0  0  0  0
 12 19  2  0  0  0  0
 12 28  1  0  0  0  0
 13 29  1  0  0  0  0
 15 17  1  0  0  0  0
 15 30  1  0  0  0  0
 16 31  1  0  0  0  0
 17 32  1  0  0  0  0
 18 20  2  0  0  0  0
 18 33  1  0  0  0  0
 19 20  1  0  0  0  0
 19 22  1  0  0  0  0
 20 34  1  0  0  0  0
 21 23  1  0  0  0  0
 22 24  1  0  0  0  0
 23 35  1  0  0  0  0
 23 36  1  0  0  0  0
 23 37  1  0  0  0  0
 24 38  1  0  0  0  0
 24 39  1  0  0  0  0
 24 40  1  0  0  0  0
M  END
>  <$CLUSTER>
521

>  <INDEX>
341558

$$$$
Chembridge 5838275
  MOE2020           3D

 51 54  0  0  0  0  0  0  0  0999 V2000
   -0.4150    0.2760   -0.8140 C   0  0  0  0  0  0  0  0  0  0  0  0
    0.2050   -0.4510    0.2120 C   0  0  0  0  0  0  0  0  0  0  0  0
   -1.1700   -0.3580   -1.8990 C   0  0  0  0  0  0  0  0  0  0  0  0
    1.0230    0.5490    1.3430 S   0  0  0  0  0  0  0  0  0  0  0  0
   -0.1610    1.6670   -0.6180 C   0  0  0  0  0  0  0  0  0  0  0  0
    0.1910   -1.8330    0.3670 N   0  0  0  0  0  0  0  0  0  0  0  0
    0.5910    1.9140    0.4970 C   0  0  0  0  0  0  0  0  0  0  0  0
    0.7950   -2.5710    1.3790 C   0  0  0  0  0  0  0  0  0  0  0  0
   -2.0540    0.4560   -2.5720 N   0  0  0  0  0  0  0  0  0  0  0  0
    0.5460   -4.0470    1.1860 C   0  0  0  0  0  0  0  0  0  0  0  0
   -2.9360    0.2450   -3.6340 C   0  0  0  0  0  0  0  0  0  0  0  0
   -1.0440   -1.5480   -2.1860 O   0  0  0  0  0  0  0  0  0  0  0  0
    1.4550   -2.1710    2.3320 O   0  0  0  0  0  0  0  0  0  0  0  0
    1.4990   -4.9260    1.7910 C   0  0  0  0  0  0  0  0  0  0  0  0
   -3.7180    1.3230   -4.1070 C   0  0  0  0  0  0  0  0  0  0  0  0
   -0.4760    2.9430   -1.3190 C   0  0  0  0  0  0  0  0  0  0  0  0
    0.8900    3.3450    0.7320 C   0  0  0  0  0  0  0  0  0  0  0  0
    1.3330   -6.3090    1.6840 C   0  0  0  0  0  0  0  0  0  0  0  0
   -3.5350    2.5230   -3.4600 O   0  0  0  0  0  0  0  0  0  0  0  0
   -0.5450   -4.5850    0.5440 C   0  0  0  0  0  0  0  0  0  0  0  0
    0.5050    3.9520   -0.6470 C   0  0  0  0  0  0  0  0  0  0  0  0
   -0.7060   -5.9690    0.4400 C   0  0  0  0  0  0  0  0  0  0  0  0
   -3.0660   -1.0100   -4.2410 C   0  0  0  0  0  0  0  0  0  0  0  0
   -4.6060    1.1240   -5.1700 C   0  0  0  0  0  0  0  0  0  0  0  0
    0.2320   -6.8300    1.0070 C   0  0  0  0  0  0  0  0  0  0  0  0
    2.3370   -7.2310    2.2950 C   0  0  0  0  0  0  0  0  0  0  0  0
   -4.3070    3.6310   -3.9100 C   0  0  0  0  0  0  0  0  0  0  0  0
   -3.9550   -1.1950   -5.3000 C   0  0  0  0  0  0  0  0  0  0  0  0
   -4.7230   -0.1320   -5.7630 C   0  0  0  0  0  0  0  0  0  0  0  0
   -0.3130   -2.3590   -0.3330 H   0  0  0  0  0  0  0  0  0  0  0  0
   -2.0670    1.4040   -2.2250 H   0  0  0  0  0  0  0  0  0  0  0  0
    2.3440   -4.5220    2.3290 H   0  0  0  0  0  0  0  0  0  0  0  0
   -1.5130    3.2350   -1.1570 H   0  0  0  0  0  0  0  0  0  0  0  0
   -0.2850    2.8620   -2.3890 H   0  0  0  0  0  0  0  0  0  0  0  0
    1.9440    3.5030    0.9600 H   0  0  0  0  0  0  0  0  0  0  0  0
    0.2790    3.7560    1.5360 H   0  0  0  0  0  0  0  0  0  0  0  0
   -1.2870   -3.9290    0.1140 H   0  0  0  0  0  0  0  0  0  0  0  0
    0.0170    4.9170   -0.5100 H   0  0  0  0  0  0  0  0  0  0  0  0
    1.3950    4.0790   -1.2640 H   0  0  0  0  0  0  0  0  0  0  0  0
   -1.5610   -6.3730   -0.0820 H   0  0  0  0  0  0  0  0  0  0  0  0
   -2.4740   -1.8410   -3.8870 H   0  0  0  0  0  0  0  0  0  0  0  0
   -5.2030    1.9470   -5.5330 H   0  0  0  0  0  0  0  0  0  0  0  0
    0.1060   -7.8990    0.9220 H   0  0  0  0  0  0  0  0  0  0  0  0
    3.1200   -6.6470    2.7780 H   0  0  0  0  0  0  0  0  0  0  0  0
    2.7770   -7.8560    1.5180 H   0  0  0  0  0  0  0  0  0  0  0  0
    1.8470   -7.8630    3.0350 H   0  0  0  0  0  0  0  0  0  0  0  0
   -4.0630    4.5100   -3.3140 H   0  0  0  0  0  0  0  0  0  0  0  0
   -5.3670    3.4020   -3.8030 H   0  0  0  0  0  0  0  0  0  0  0  0
   -4.0820    3.8290   -4.9580 H   0  0  0  0  0  0  0  0  0  0  0  0
   -4.0470   -2.1670   -5.7620 H   0  0  0  0  0  0  0  0  0  0  0  0
   -5.4110   -0.2800   -6.5830 H   0  0  0  0  0  0  0  0  0  0  0  0
  1  2  2  0  0  0  0
  1  3  1  0  0  0  0
  1  5  1  0  0  0  0
  2  4  1  0  0  0  0
  2  6  1  0  0  0  0
  3  9  1  0  0  0  0
  3 12  2  0  0  0  0
  4  7  1  0  0  0  0
  5  7  2  0  0  0  0
  5 16  1  0  0  0  0
  6  8  1  0  0  0  0
  6 30  1  0  0  0  0
  7 17  1  0  0  0  0
  8 10  1  0  0  0  0
  8 13  2  0  0  0  0
  9 11  1  0  0  0  0
  9 31  1  0  0  0  0
 10 14  2  0  0  0  0
 10 20  1  0  0  0  0
 11 15  2  0  0  0  0
 11 23  1  0  0  0  0
 14 18  1  0  0  0  0
 14 32  1  0  0  0  0
 15 19  1  0  0  0  0
 15 24  1  0  0  0  0
 16 21  1  0  0  0  0
 16 33  1  0  0  0  0
 16 34  1  0  0  0  0
 17 21  1  0  0  0  0
 17 35  1  0  0  0  0
 17 36  1  0  0  0  0
 18 25  2  0  0  0  0
 18 26  1  0  0  0  0
 19 27  1  0  0  0  0
 20 22  2  0  0  0  0
 20 37  1  0  0  0  0
 21 38  1  0  0  0  0
 21 39  1  0  0  0  0
 22 25  1  0  0  0  0
 22 40  1  0  0  0  0
 23 28  2  0  0  0  0
 23 41  1  0  0  0  0
 24 29  2  0  0  0  0
 24 42  1  0  0  0  0
 25 43  1  0  0  0  0
 26 44  1  0  0  0  0
 26 45  1  0  0  0  0
 26 46  1  0  0  0  0
 27 47  1  0  0  0  0
 27 48  1  0  0  0  0
 27 49  1  0  0  0  0
 28 29  1  0  0  0  0
 28 50  1  0  0  0  0
 29 51  1  0  0  0  0
M  END
>  <$CLUSTER>
522

>  <INDEX>
53326

$$$$
InterBioScreen STOCK3S-67638
  MOE2020           3D

 44 46  0  0  1  0  0  0  0  0999 V2000
    0.0280    0.2440    1.1320 N   0  0  0  0  0  0  0  0  0  0  0  0
   -0.8550   -0.6330    1.6580 N   0  0  0  0  0  0  0  0  0  0  0  0
    0.1870    1.3770    1.8990 C   0  0  0  0  0  0  0  0  0  0  0  0
   -2.4560    0.1360   -2.0370 C   0  0  0  0  0  0  0  0  0  0  0  0
    0.6910   -0.0660   -0.1330 C   0  0  3  0  0  0  0  0  0  0  0  0
   -3.6250   -0.7900   -1.9560 C   0  0  0  0  0  0  0  0  0  0  0  0
   -0.6440    1.2050    2.9860 C   0  0  0  0  0  0  0  0  0  0  0  0
   -1.3720   -0.4650   -1.3420 O   0  0  0  0  0  0  0  0  0  0  0  0
   -1.2560   -0.0420    2.7830 C   0  0  0  0  0  0  0  0  0  0  0  0
   -0.1800    0.3310   -1.3470 C   0  0  3  0  0  0  0  0  0  0  0  0
   -4.8060   -0.3920   -2.5770 C   0  0  0  0  0  0  0  0  0  0  0  0
   -2.4330    1.2030   -2.5930 O   0  0  0  0  0  0  0  0  0  0  0  0
   -4.9040    0.7770   -3.2290 F   0  0  0  0  0  0  0  0  0  0  0  0
    1.0850    2.5040    1.5500 C   0  0  0  0  0  0  0  0  0  0  0  0
   -3.5790   -2.0140   -1.2920 C   0  0  0  0  0  0  0  0  0  0  0  0
    1.1600   -1.5300   -0.2250 C   0  0  0  0  0  0  0  0  0  0  0  0
    0.6090    0.0850   -2.6420 C   0  0  0  0  0  0  0  0  0  0  0  0
   -2.2320   -0.6380    3.7060 C   0  0  0  0  0  0  0  0  0  0  0  0
   -5.9370   -1.2080   -2.5410 C   0  0  0  0  0  0  0  0  0  0  0  0
   -4.7090   -2.8340   -1.2530 C   0  0  0  0  0  0  0  0  0  0  0  0
    1.9100   -1.7830   -1.5320 C   0  0  0  0  0  0  0  0  0  0  0  0
    1.0930   -1.3630   -2.7510 C   0  0  0  0  0  0  0  0  0  0  0  0
   -5.8880   -2.4310   -1.8770 C   0  0  0  0  0  0  0  0  0  0  0  0
    1.5940    0.5440   -0.1590 H   0  0  0  0  0  0  0  0  0  0  0  0
   -0.7920    1.8830    3.8140 H   0  0  0  0  0  0  0  0  0  0  0  0
   -0.4460    1.3860   -1.2880 H   0  0  0  0  0  0  0  0  0  0  0  0
    1.5900    2.2880    0.6080 H   0  0  0  0  0  0  0  0  0  0  0  0
    1.8260    2.6350    2.3380 H   0  0  0  0  0  0  0  0  0  0  0  0
    0.4990    3.4170    1.4470 H   0  0  0  0  0  0  0  0  0  0  0  0
   -2.6670   -2.3290   -0.8060 H   0  0  0  0  0  0  0  0  0  0  0  0
    0.2910   -2.1860   -0.1800 H   0  0  0  0  0  0  0  0  0  0  0  0
    1.8220   -1.7460    0.6140 H   0  0  0  0  0  0  0  0  0  0  0  0
    1.4740    0.7480   -2.6580 H   0  0  0  0  0  0  0  0  0  0  0  0
   -0.0340    0.3060   -3.4940 H   0  0  0  0  0  0  0  0  0  0  0  0
   -2.5540   -1.6050    3.3200 H   0  0  0  0  0  0  0  0  0  0  0  0
   -3.0950    0.0220    3.7980 H   0  0  0  0  0  0  0  0  0  0  0  0
   -1.7710   -0.7720    4.6850 H   0  0  0  0  0  0  0  0  0  0  0  0
   -6.8480   -0.8920   -3.0270 H   0  0  0  0  0  0  0  0  0  0  0  0
   -4.6690   -3.7830   -0.7380 H   0  0  0  0  0  0  0  0  0  0  0  0
    2.1350   -2.8470   -1.6090 H   0  0  0  0  0  0  0  0  0  0  0  0
    2.8400   -1.2150   -1.5190 H   0  0  0  0  0  0  0  0  0  0  0  0
    1.7130   -1.4610   -3.6420 H   0  0  0  0  0  0  0  0  0  0  0  0
    0.2270   -2.0190   -2.8380 H   0  0  0  0  0  0  0  0  0  0  0  0
   -6.7610   -3.0650   -1.8460 H   0  0  0  0  0  0  0  0  0  0  0  0
  1  2  1  0  0  0  0
  1  3  1  0  0  0  0
  1  5  1  0  0  0  0
  2  9  2  0  0  0  0
  3  7  2  0  0  0  0
  3 14  1  0  0  0  0
  4  6  1  0  0  0  0
  4  8  1  0  0  0  0
  4 12  2  0  0  0  0
  5 10  1  0  0  0  0
  5 16  1  0  0  0  0
  5 24  1  0  0  0  0
  6 11  2  0  0  0  0
  6 15  1  0  0  0  0
  7  9  1  0  0  0  0
  7 25  1  0  0  0  0
  8 10  1  0  0  0  0
  9 18  1  0  0  0  0
 10 17  1  0  0  0  0
 10 26  1  0  0  0  0
 11 13  1  0  0  0  0
 11 19  1  0  0  0  0
 14 27  1  0  0  0  0
 14 28  1  0  0  0  0
 14 29  1  0  0  0  0
 15 20  2  0  0  0  0
 15 30  1  0  0  0  0
 16 21  1  0  0  0  0
 16 31  1  0  0  0  0
 16 32  1  0  0  0  0
 17 22  1  0  0  0  0
 17 33  1  0  0  0  0
 17 34  1  0  0  0  0
 18 35  1  0  0  0  0
 18 36  1  0  0  0  0
 18 37  1  0  0  0  0
 19 23  2  0  0  0  0
 19 38  1  0  0  0  0
 20 23  1  0  0  0  0
 20 39  1  0  0  0  0
 21 22  1  0  0  0  0
 21 40  1  0  0  0  0
 21 41  1  0  0  0  0
 22 42  1  0  0  0  0
 22 43  1  0  0  0  0
 23 44  1  0  0  0  0
M  END
>  <$CLUSTER>
523

>  <INDEX>
344827

$$$$
InterBioScreen STOCK3S-66957
  MOE2020           3D

 43 46  0  0  1  0  0  0  0  0999 V2000
    0.0980    2.0190    0.6790 C   0  0  0  0  0  0  0  0  0  0  0  0
   -0.2760   -0.2270   -0.3310 N   0  0  0  0  0  0  0  0  0  0  0  0
   -1.3640    0.2770   -1.0810 C   0  0  0  0  0  0  0  0  0  0  0  0
    0.4900    0.5740    0.5540 C   0  0  0  0  0  0  0  0  0  0  0  0
   -1.6660    1.6000   -0.8460 N   0  0  0  0  0  0  0  0  0  0  0  0
   -0.9790    2.4290   -0.0100 C   0  0  0  0  0  0  0  0  0  0  0  0
    0.9360    2.9080    1.5780 C   0  0  3  0  0  0  0  0  0  0  0  0
    0.6730    2.6530    3.0600 C   0  0  0  0  0  0  0  0  0  0  0  0
    0.1090   -1.6130   -0.4250 C   0  0  0  0  0  0  0  0  0  0  0  0
   -2.2740   -0.5130   -2.2620 S   0  0  0  0  0  0  0  0  0  0  0  0
    2.4100    2.7890    1.3380 N   0  3  0  0  0  0  0  0  0  0  0  0
    1.4170    0.1500    1.2430 O   0  0  0  0  0  0  0  0  0  0  0  0
    1.6980    2.5950    4.0440 C   0  0  0  0  0  0  0  0  0  0  0  0
   -1.5050    3.7000    0.0310 O   0  0  0  0  0  0  0  0  0  0  0  0
    1.4340   -1.9570   -0.7380 C   0  0  0  0  0  0  0  0  0  0  0  0
   -0.8120   -2.6370   -0.1610 C   0  0  0  0  0  0  0  0  0  0  0  0
    0.8910   -4.3060   -0.5610 C   0  0  0  0  0  0  0  0  0  0  0  0
    3.2950    3.4220    2.2630 C   0  0  0  0  0  0  0  0  0  0  0  0
    1.8190   -3.2970   -0.8110 C   0  0  0  0  0  0  0  0  0  0  0  0
   -0.4220   -3.9760   -0.2330 C   0  0  0  0  0  0  0  0  0  0  0  0
    1.3400   -5.5580   -0.6560 F   0  0  0  0  0  0  0  0  0  0  0  0
   -0.6740    2.5410    3.5630 C   0  0  0  0  0  0  0  0  0  0  0  0
    3.1440    2.7320    3.6200 C   0  0  0  0  0  0  0  0  0  0  0  0
    1.4090    2.3560    5.3970 C   0  0  0  0  0  0  0  0  0  0  0  0
   -0.9470    2.3180    4.9110 C   0  0  0  0  0  0  0  0  0  0  0  0
    0.0930    2.2190    5.8260 C   0  0  0  0  0  0  0  0  0  0  0  0
   -2.4610    1.9880   -1.3330 H   0  0  0  0  0  0  0  0  0  0  0  0
    0.6220    3.9180    1.3140 H   0  0  0  0  0  0  0  0  0  0  0  0
    2.5980    3.1810    0.4260 H   0  0  0  0  0  0  0  0  0  0  0  0
    2.6350    1.8040    1.3340 H   0  0  0  0  0  0  0  0  0  0  0  0
   -1.0410    4.3130    0.6060 H   0  0  0  0  0  0  0  0  0  0  0  0
    2.1600   -1.1800   -0.9240 H   0  0  0  0  0  0  0  0  0  0  0  0
   -1.8300   -2.3880    0.1000 H   0  0  0  0  0  0  0  0  0  0  0  0
    3.0390    4.4770    2.3550 H   0  0  0  0  0  0  0  0  0  0  0  0
    4.3230    3.3270    1.9140 H   0  0  0  0  0  0  0  0  0  0  0  0
    2.8380   -3.5520   -1.0620 H   0  0  0  0  0  0  0  0  0  0  0  0
   -1.1400   -4.7580   -0.0340 H   0  0  0  0  0  0  0  0  0  0  0  0
   -1.4990    2.6330    2.8720 H   0  0  0  0  0  0  0  0  0  0  0  0
    3.5850    1.7370    3.5570 H   0  0  0  0  0  0  0  0  0  0  0  0
    3.6740    3.3180    4.3710 H   0  0  0  0  0  0  0  0  0  0  0  0
    2.2160    2.2780    6.1110 H   0  0  0  0  0  0  0  0  0  0  0  0
   -1.9700    2.2220    5.2450 H   0  0  0  0  0  0  0  0  0  0  0  0
   -0.1200    2.0360    6.8690 H   0  0  0  0  0  0  0  0  0  0  0  0
  1  4  1  0  0  0  0
  1  6  2  0  0  0  0
  1  7  1  0  0  0  0
  2  3  1  0  0  0  0
  2  4  1  0  0  0  0
  2  9  1  0  0  0  0
  3  5  1  0  0  0  0
  3 10  2  0  0  0  0
  4 12  2  0  0  0  0
  5  6  1  0  0  0  0
  5 27  1  0  0  0  0
  6 14  1  0  0  0  0
  7  8  1  0  0  0  0
  7 11  1  0  0  0  0
  7 28  1  0  0  0  0
  8 13  2  0  0  0  0
  8 22  1  0  0  0  0
  9 15  2  0  0  0  0
  9 16  1  0  0  0  0
 11 18  1  0  0  0  0
 11 29  1  0  0  0  0
 11 30  1  0  0  0  0
 13 23  1  0  0  0  0
 13 24  1  0  0  0  0
 14 31  1  0  0  0  0
 15 19  1  0  0  0  0
 15 32  1  0  0  0  0
 16 20  2  0  0  0  0
 16 33  1  0  0  0  0
 17 19  2  0  0  0  0
 17 20  1  0  0  0  0
 17 21  1  0  0  0  0
 18 23  1  0  0  0  0
 18 34  1  0  0  0  0
 18 35  1  0  0  0  0
 19 36  1  0  0  0  0
 20 37  1  0  0  0  0
 22 25  2  0  0  0  0
 22 38  1  0  0  0  0
 23 39  1  0  0  0  0
 23 40  1  0  0  0  0
 24 26  2  0  0  0  0
 24 41  1  0  0  0  0
 25 26  1  0  0  0  0
 25 42  1  0  0  0  0
 26 43  1  0  0  0  0
M  CHG  1  11   1
M  END
>  <$CLUSTER>
524

>  <INDEX>
344785

$$$$
TimTec ST056242
  MOE2020           3D

 28 30  0  0  0  0  0  0  0  0999 V2000
   -0.6870    0.0290    0.0510 C   0  0  0  0  0  0  0  0  0  0  0  0
   -1.1980   -0.4940   -1.2530 C   0  0  0  0  0  0  0  0  0  0  0  0
   -1.5630    0.4540    0.9720 C   0  0  0  0  0  0  0  0  0  0  0  0
   -2.5630   -0.5050   -1.4480 O   0  0  0  0  0  0  0  0  0  0  0  0
   -3.4140   -0.0490   -0.4360 C   0  0  0  0  0  0  0  0  0  0  0  0
   -2.9770    0.4140    0.7340 C   0  0  0  0  0  0  0  0  0  0  0  0
    0.7580    0.1030    0.3270 C   0  0  0  0  0  0  0  0  0  0  0  0
   -4.8220   -0.1020   -0.7300 C   0  0  0  0  0  0  0  0  0  0  0  0
   -0.4360   -0.9080   -2.1200 O   0  0  0  0  0  0  0  0  0  0  0  0
    1.5900    0.8890   -0.4820 C   0  0  0  0  0  0  0  0  0  0  0  0
   -3.8800    0.8790    1.7190 C   0  0  0  0  0  0  0  0  0  0  0  0
   -5.7220    0.3470    0.2350 C   0  0  0  0  0  0  0  0  0  0  0  0
    2.9610    0.9620   -0.2260 C   0  0  0  0  0  0  0  0  0  0  0  0
   -5.2520    0.8360    1.4560 C   0  0  0  0  0  0  0  0  0  0  0  0
    3.9680    1.9200   -1.2110 Cl  0  0  0  0  0  0  0  0  0  0  0  0
   -7.0560    0.3020   -0.0270 O   0  0  0  0  0  0  0  0  0  0  0  0
    1.3230   -0.6100    1.3950 C   0  0  0  0  0  0  0  0  0  0  0  0
    2.6940   -0.5360    1.6470 C   0  0  0  0  0  0  0  0  0  0  0  0
    3.5120    0.2500    0.8380 C   0  0  0  0  0  0  0  0  0  0  0  0
   -1.1960    0.8350    1.9140 H   0  0  0  0  0  0  0  0  0  0  0  0
   -5.1740   -0.4820   -1.6780 H   0  0  0  0  0  0  0  0  0  0  0  0
    1.1680    1.4420   -1.3090 H   0  0  0  0  0  0  0  0  0  0  0  0
   -3.5140    1.2620    2.6600 H   0  0  0  0  0  0  0  0  0  0  0  0
   -5.9530    1.1830    2.2010 H   0  0  0  0  0  0  0  0  0  0  0  0
   -7.6190    0.6260    0.6800 H   0  0  0  0  0  0  0  0  0  0  0  0
    0.6930   -1.2200    2.0260 H   0  0  0  0  0  0  0  0  0  0  0  0
    3.1210   -1.0890    2.4700 H   0  0  0  0  0  0  0  0  0  0  0  0
    4.5720    0.3070    1.0350 H   0  0  0  0  0  0  0  0  0  0  0  0
  1  2  1  0  0  0  0
  1  3  2  0  0  0  0
  1  7  1  0  0  0  0
  2  4  1  0  0  0  0
  2  9  2  0  0  0  0
  3  6  1  0  0  0  0
  3 20  1  0  0  0  0
  4  5  1  0  0  0  0
  5  6  2  0  0  0  0
  5  8  1  0  0  0  0
  6 11  1  0  0  0  0
  7 10  2  0  0  0  0
  7 17  1  0  0  0  0
  8 12  2  0  0  0  0
  8 21  1  0  0  0  0
 10 13  1  0  0  0  0
 10 22  1  0  0  0  0
 11 14  2  0  0  0  0
 11 23  1  0  0  0  0
 12 14  1  0  0  0  0
 12 16  1  0  0  0  0
 13 15  1  0  0  0  0
 13 19  2  0  0  0  0
 14 24  1  0  0  0  0
 16 25  1  0  0  0  0
 17 18  2  0  0  0  0
 17 26  1  0  0  0  0
 18 19  1  0  0  0  0
 18 27  1  0  0  0  0
 19 28  1  0  0  0  0
M  END
>  <$CLUSTER>
525

>  <INDEX>
642409

$$$$
Labotest LT01886634
  MOE2020           3D

 32 34  0  0  0  0  0  0  0  0999 V2000
   -0.2670    2.2960    1.8650 C   0  0  0  0  0  0  0  0  0  0  0  0
    1.3360    2.6880    2.2870 S   0  0  0  0  0  0  0  0  0  0  0  0
   -1.1780    2.9570    2.6850 C   0  0  0  0  0  0  0  0  0  0  0  0
   -0.5840    1.3420    0.7430 C   0  0  0  0  0  0  0  0  0  0  0  0
   -0.5310    3.7810    3.6530 C   0  0  0  0  0  0  0  0  0  0  0  0
    0.8390    3.7250    3.5450 C   0  0  0  0  0  0  0  0  0  0  0  0
    0.5220   -1.3930   -0.6920 C   0  0  0  0  0  0  0  0  0  0  0  0
    0.5470    0.8600    0.1230 N   0  0  0  0  0  0  0  0  0  0  0  0
    0.4310   -0.0410   -0.9310 N   0  0  0  0  0  0  0  0  0  0  0  0
   -1.7410    1.0610    0.4300 O   0  0  0  0  0  0  0  0  0  0  0  0
    0.7290   -1.9090    0.4070 O   0  0  0  0  0  0  0  0  0  0  0  0
   -2.8900    2.8620    2.6230 Cl  0  0  0  0  0  0  0  0  0  0  0  0
    0.1130   -3.9340   -4.1380 N   0  0  0  0  0  0  0  0  0  0  0  0
    0.3630   -2.2150   -1.9450 C   0  0  0  0  0  0  0  0  0  0  0  0
   -1.0460    4.6400    4.7000 C   0  0  0  0  0  0  0  0  0  0  0  0
    1.7320    4.4530    4.3910 C   0  0  0  0  0  0  0  0  0  0  0  0
    0.7380   -4.3350   -3.0020 C   0  0  0  0  0  0  0  0  0  0  0  0
   -0.3900   -2.6740   -4.1410 C   0  0  0  0  0  0  0  0  0  0  0  0
    0.8850   -3.5340   -1.8800 C   0  0  0  0  0  0  0  0  0  0  0  0
   -0.2900   -1.7980   -3.0690 C   0  0  0  0  0  0  0  0  0  0  0  0
   -0.1910    5.3620    5.5380 C   0  0  0  0  0  0  0  0  0  0  0  0
    1.1840    5.2660    5.3840 C   0  0  0  0  0  0  0  0  0  0  0  0
    1.4600    1.1600    0.4330 H   0  0  0  0  0  0  0  0  0  0  0  0
    0.2800    0.2970   -1.8710 H   0  0  0  0  0  0  0  0  0  0  0  0
   -2.1140    4.7240    4.8360 H   0  0  0  0  0  0  0  0  0  0  0  0
    2.8020    4.3760    4.2650 H   0  0  0  0  0  0  0  0  0  0  0  0
    1.1440   -5.3350   -2.9700 H   0  0  0  0  0  0  0  0  0  0  0  0
   -0.8980   -2.3320   -5.0300 H   0  0  0  0  0  0  0  0  0  0  0  0
    1.3770   -3.8990   -0.9910 H   0  0  0  0  0  0  0  0  0  0  0  0
   -0.7190   -0.8080   -3.1230 H   0  0  0  0  0  0  0  0  0  0  0  0
   -0.6030    5.9970    6.3080 H   0  0  0  0  0  0  0  0  0  0  0  0
    1.8360    5.8250    6.0380 H   0  0  0  0  0  0  0  0  0  0  0  0
  1  2  1  0  0  0  0
  1  3  2  0  0  0  0
  1  4  1  0  0  0  0
  2  6  1  0  0  0  0
  3  5  1  0  0  0  0
  3 12  1  0  0  0  0
  4  8  1  0  0  0  0
  4 10  2  0  0  0  0
  5  6  2  0  0  0  0
  5 15  1  0  0  0  0
  6 16  1  0  0  0  0
  7  9  1  0  0  0  0
  7 11  2  0  0  0  0
  7 14  1  0  0  0  0
  8  9  1  0  0  0  0
  8 23  1  0  0  0  0
  9 24  1  0  0  0  0
 13 17  2  0  0  0  0
 13 18  1  0  0  0  0
 14 19  2  0  0  0  0
 14 20  1  0  0  0  0
 15 21  2  0  0  0  0
 15 25  1  0  0  0  0
 16 22  2  0  0  0  0
 16 26  1  0  0  0  0
 17 19  1  0  0  0  0
 17 27  1  0  0  0  0
 18 20  2  0  0  0  0
 18 28  1  0  0  0  0
 19 29  1  0  0  0  0
 20 30  1  0  0  0  0
 21 22  1  0  0  0  0
 21 31  1  0  0  0  0
 22 32  1  0  0  0  0
M  END
>  <$CLUSTER>
526

>  <INDEX>
324078

$$$$
InterBioScreen STOCK2S-42110
  MOE2020           3D

 49 52  0  0  0  0  0  0  0  0999 V2000
    2.6880   -1.4770   -2.0750 C   0  0  0  0  0  0  0  0  0  0  0  0
    3.9460   -1.6750   -2.4280 N   0  0  0  0  0  0  0  0  0  0  0  0
    2.1290   -0.6340   -0.9720 C   0  0  0  0  0  0  0  0  0  0  0  0
   -3.4500    0.2490    0.5960 N   0  0  0  0  0  0  0  0  0  0  0  0
    1.7830   -2.1570   -2.8550 O   0  0  0  0  0  0  0  0  0  0  0  0
   -2.3320   -0.1900   -0.0460 C   0  0  0  0  0  0  0  0  0  0  0  0
   -3.5340    1.1680    1.7550 C   0  0  0  0  0  0  0  0  0  0  0  0
    3.8630   -2.5310   -3.4950 C   0  0  0  0  0  0  0  0  0  0  0  0
    2.5510   -2.8260   -3.7560 C   0  0  0  0  0  0  0  0  0  0  0  0
   -1.1960    0.3250    0.5070 N   0  0  0  0  0  0  0  0  0  0  0  0
    2.9780    0.0870   -0.1360 C   0  0  0  0  0  0  0  0  0  0  0  0
    0.7410   -0.5810   -0.7910 C   0  0  0  0  0  0  0  0  0  0  0  0
   -2.5450   -1.2300   -1.3320 S   0  0  0  0  0  0  0  0  0  0  0  0
   -4.8770    1.4450    2.2130 C   0  0  0  0  0  0  0  0  0  0  0  0
    0.1820    0.1930    0.2270 C   0  0  0  0  0  0  0  0  0  0  0  0
    4.8680   -3.1020   -4.2950 C   0  0  0  0  0  0  0  0  0  0  0  0
   -2.4870    1.6070    2.2200 O   0  0  0  0  0  0  0  0  0  0  0  0
    2.1080   -3.6660   -4.7740 C   0  0  0  0  0  0  0  0  0  0  0  0
    2.4390    0.8650    0.8850 C   0  0  0  0  0  0  0  0  0  0  0  0
   -5.9500    0.5930    2.0660 C   0  0  0  0  0  0  0  0  0  0  0  0
   -5.0300    2.6640    2.9110 C   0  0  0  0  0  0  0  0  0  0  0  0
    4.4660   -3.9560   -5.3330 C   0  0  0  0  0  0  0  0  0  0  0  0
    1.0530    0.9160    1.0630 C   0  0  0  0  0  0  0  0  0  0  0  0
    3.1130   -4.2300   -5.5660 C   0  0  0  0  0  0  0  0  0  0  0  0
   -6.2830    3.0100    3.4220 C   0  0  0  0  0  0  0  0  0  0  0  0
   -7.2000    0.9440    2.5790 C   0  0  0  0  0  0  0  0  0  0  0  0
    4.3240    0.0500   -0.2920 O   0  0  0  0  0  0  0  0  0  0  0  0
   -7.3670    2.1520    3.2540 C   0  0  0  0  0  0  0  0  0  0  0  0
    5.5100   -4.5860   -6.2080 C   0  0  0  0  0  0  0  0  0  0  0  0
   -8.7090    2.5230    3.7960 C   0  0  0  0  0  0  0  0  0  0  0  0
   -4.3300   -0.0940    0.2380 H   0  0  0  0  0  0  0  0  0  0  0  0
   -1.3820    0.9360    1.2900 H   0  0  0  0  0  0  0  0  0  0  0  0
    0.0960   -1.1460   -1.4470 H   0  0  0  0  0  0  0  0  0  0  0  0
    5.9120   -2.8910   -4.1170 H   0  0  0  0  0  0  0  0  0  0  0  0
    1.0600   -3.8680   -4.9410 H   0  0  0  0  0  0  0  0  0  0  0  0
    3.0900    1.4280    1.5380 H   0  0  0  0  0  0  0  0  0  0  0  0
   -5.8240   -0.3490    1.5530 H   0  0  0  0  0  0  0  0  0  0  0  0
   -4.1850    3.3230    3.0480 H   0  0  0  0  0  0  0  0  0  0  0  0
    0.6430    1.5220    1.8570 H   0  0  0  0  0  0  0  0  0  0  0  0
    2.8400   -4.8910   -6.3750 H   0  0  0  0  0  0  0  0  0  0  0  0
   -6.4110    3.9440    3.9480 H   0  0  0  0  0  0  0  0  0  0  0  0
   -8.0400    0.2770    2.4520 H   0  0  0  0  0  0  0  0  0  0  0  0
    4.8200    0.5810    0.3350 H   0  0  0  0  0  0  0  0  0  0  0  0
    6.4990   -4.2630   -5.8840 H   0  0  0  0  0  0  0  0  0  0  0  0
    5.3490   -4.2820   -7.2420 H   0  0  0  0  0  0  0  0  0  0  0  0
    5.4400   -5.6710   -6.1340 H   0  0  0  0  0  0  0  0  0  0  0  0
   -8.6470    3.4940    4.2880 H   0  0  0  0  0  0  0  0  0  0  0  0
   -9.0300    1.7710    4.5170 H   0  0  0  0  0  0  0  0  0  0  0  0
   -9.4290    2.5750    2.9790 H   0  0  0  0  0  0  0  0  0  0  0  0
  1  2  2  0  0  0  0
  1  3  1  0  0  0  0
  1  5  1  0  0  0  0
  2  8  1  0  0  0  0
  3 11  1  0  0  0  0
  3 12  2  0  0  0  0
  4  6  1  0  0  0  0
  4  7  1  0  0  0  0
  4 31  1  0  0  0  0
  5  9  1  0  0  0  0
  6 10  1  0  0  0  0
  6 13  2  0  0  0  0
  7 14  1  0  0  0  0
  7 17  2  0  0  0  0
  8  9  2  0  0  0  0
  8 16  1  0  0  0  0
  9 18  1  0  0  0  0
 10 15  1  0  0  0  0
 10 32  1  0  0  0  0
 11 19  2  0  0  0  0
 11 27  1  0  0  0  0
 12 15  1  0  0  0  0
 12 33  1  0  0  0  0
 14 20  1  0  0  0  0
 14 21  2  0  0  0  0
 15 23  2  0  0  0  0
 16 22  2  0  0  0  0
 16 34  1  0  0  0  0
 18 24  2  0  0  0  0
 18 35  1  0  0  0  0
 19 23  1  0  0  0  0
 19 36  1  0  0  0  0
 20 26  2  0  0  0  0
 20 37  1  0  0  0  0
 21 25  1  0  0  0  0
 21 38  1  0  0  0  0
 22 24  1  0  0  0  0
 22 29  1  0  0  0  0
 23 39  1  0  0  0  0
 24 40  1  0  0  0  0
 25 28  2  0  0  0  0
 25 41  1  0  0  0  0
 26 28  1  0  0  0  0
 26 42  1  0  0  0  0
 27 43  1  0  0  0  0
 28 30  1  0  0  0  0
 29 44  1  0  0  0  0
 29 45  1  0  0  0  0
 29 46  1  0  0  0  0
 30 47  1  0  0  0  0
 30 48  1  0  0  0  0
 30 49  1  0  0  0  0
M  END
>  <$CLUSTER>
527

>  <INDEX>
337669

$$$$
InterBioScreen STOCK3S-57596
  MOE2020           3D

 48 50  0  0  1  0  0  0  0  0999 V2000
   -3.5660   -6.8500   -0.5170 C   0  0  3  0  0  0  0  0  0  0  0  0
   -2.8250   -6.6250    0.8160 C   0  0  3  0  0  0  0  0  0  0  0  0
    0.3620    0.6510   -0.0820 N   0  3  0  0  0  0  0  0  0  0  0  0
   -1.7450   -5.5800    0.6780 C   0  0  0  0  0  0  0  0  0  0  0  0
   -4.1330   -8.2220   -0.2220 O   0  0  0  0  0  0  0  0  0  0  0  0
   -2.2930   -4.3110    0.5390 N   0  0  0  0  0  0  0  0  0  0  0  0
   -3.3940   -8.8630    0.7330 C   0  0  0  0  0  0  0  0  0  0  0  0
   -0.2920   -0.6470    0.0810 C   0  0  0  0  0  0  0  0  0  0  0  0
   -4.7130   -5.9440   -0.7430 C   0  0  0  0  0  0  0  0  0  0  0  0
   -1.6080   -3.0760    0.3840 C   0  0  0  0  0  0  0  0  0  0  0  0
   -2.2780   -7.9720    1.3220 C   0  0  0  0  0  0  0  0  0  0  0  0
   -1.7850   -0.6130    0.1000 C   0  0  0  0  0  0  0  0  0  0  0  0
   -2.3680   -1.8900    0.2570 C   0  0  0  0  0  0  0  0  0  0  0  0
    1.6040    0.6970   -0.1070 O   0  5  0  0  0  0  0  0  0  0  0  0
   -5.4020   -6.0800   -2.1100 C   0  0  0  0  0  0  0  0  0  0  0  0
   -0.3660    1.6520   -0.1880 O   0  0  0  0  0  0  0  0  0  0  0  0
   -0.5610   -5.8990    0.6950 O   0  0  0  0  0  0  0  0  0  0  0  0
   -4.4280   -6.1830   -3.1590 O   0  0  0  0  0  0  0  0  0  0  0  0
   -3.5850  -10.0230    1.0770 O   0  0  0  0  0  0  0  0  0  0  0  0
   -2.6830   -7.0370   -1.7360 C   0  0  0  0  0  0  0  0  0  0  0  0
    0.4780   -1.7400    0.1970 C   0  0  0  0  0  0  0  0  0  0  0  0
   -0.2080   -2.9870    0.3530 C   0  0  0  0  0  0  0  0  0  0  0  0
   -3.4580   -7.2120   -2.9880 C   0  0  0  0  0  0  0  0  0  0  0  0
   -3.8750   -1.8940    0.2800 C   0  0  0  0  0  0  0  0  0  0  0  0
   -6.1960   -4.7960   -2.4060 C   0  0  0  0  0  0  0  0  0  0  0  0
   -6.3850   -7.2590   -2.1650 C   0  0  0  0  0  0  0  0  0  0  0  0
   -3.5230   -6.2370    1.5580 H   0  0  0  0  0  0  0  0  0  0  0  0
   -3.3020   -4.2600    0.5490 H   0  0  0  0  0  0  0  0  0  0  0  0
   -4.3550   -4.9190   -0.6470 H   0  0  0  0  0  0  0  0  0  0  0  0
   -5.4560   -6.1430    0.0290 H   0  0  0  0  0  0  0  0  0  0  0  0
   -2.2350   -8.0220    2.4100 H   0  0  0  0  0  0  0  0  0  0  0  0
   -1.2970   -8.2050    0.9090 H   0  0  0  0  0  0  0  0  0  0  0  0
   -2.3610    0.2960    0.0030 H   0  0  0  0  0  0  0  0  0  0  0  0
   -2.0630   -7.9210   -1.5840 H   0  0  0  0  0  0  0  0  0  0  0  0
   -2.0450   -6.1590   -1.8410 H   0  0  0  0  0  0  0  0  0  0  0  0
    1.5560   -1.6820    0.1740 H   0  0  0  0  0  0  0  0  0  0  0  0
    0.3730   -3.8920    0.4500 H   0  0  0  0  0  0  0  0  0  0  0  0
   -2.7710   -7.1930   -3.8340 H   0  0  0  0  0  0  0  0  0  0  0  0
   -3.9670   -8.1750   -2.9560 H   0  0  0  0  0  0  0  0  0  0  0  0
   -4.2340   -2.9160    0.4040 H   0  0  0  0  0  0  0  0  0  0  0  0
   -4.2540   -1.4870   -0.6580 H   0  0  0  0  0  0  0  0  0  0  0  0
   -4.2270   -1.2820    1.1100 H   0  0  0  0  0  0  0  0  0  0  0  0
   -5.5240   -3.9380   -2.3740 H   0  0  0  0  0  0  0  0  0  0  0  0
   -6.9790   -4.6720   -1.6580 H   0  0  0  0  0  0  0  0  0  0  0  0
   -6.6470   -4.8680   -3.3960 H   0  0  0  0  0  0  0  0  0  0  0  0
   -5.8510   -8.1870   -1.9590 H   0  0  0  0  0  0  0  0  0  0  0  0
   -6.8350   -7.3110   -3.1570 H   0  0  0  0  0  0  0  0  0  0  0  0
   -7.1660   -7.1160   -1.4190 H   0  0  0  0  0  0  0  0  0  0  0  0
  1  2  1  0  0  0  0
  1  5  1  0  0  0  0
  1  9  1  0  0  0  0
  1 20  1  0  0  0  0
  2  4  1  0  0  0  0
  2 11  1  0  0  0  0
  2 27  1  0  0  0  0
  3  8  1  0  0  0  0
  3 14  1  0  0  0  0
  3 16  2  0  0  0  0
  4  6  1  0  0  0  0
  4 17  2  0  0  0  0
  5  7  1  0  0  0  0
  6 10  1  0  0  0  0
  6 28  1  0  0  0  0
  7 11  1  0  0  0  0
  7 19  2  0  0  0  0
  8 12  2  0  0  0  0
  8 21  1  0  0  0  0
  9 15  1  0  0  0  0
  9 29  1  0  0  0  0
  9 30  1  0  0  0  0
 10 13  2  0  0  0  0
 10 22  1  0  0  0  0
 11 31  1  0  0  0  0
 11 32  1  0  0  0  0
 12 13  1  0  0  0  0
 12 33  1  0  0  0  0
 13 24  1  0  0  0  0
 15 18  1  0  0  0  0
 15 25  1  0  0  0  0
 15 26  1  0  0  0  0
 18 23  1  0  0  0  0
 20 23  1  0  0  0  0
 20 34  1  0  0  0  0
 20 35  1  0  0  0  0
 21 22  2  0  0  0  0
 21 36  1  0  0  0  0
 22 37  1  0  0  0  0
 23 38  1  0  0  0  0
 23 39  1  0  0  0  0
 24 40  1  0  0  0  0
 24 41  1  0  0  0  0
 24 42  1  0  0  0  0
 25 43  1  0  0  0  0
 25 44  1  0  0  0  0
 25 45  1  0  0  0  0
 26 46  1  0  0  0  0
 26 47  1  0  0  0  0
 26 48  1  0  0  0  0
M  CHG  1   3   1
M  CHG  1  14  -1
M  END
>  <$CLUSTER>
528

>  <INDEX>
344240

$$$$
InterBioScreen STOCK3S-81928
  MOE2020           3D

 50 53  0  0  0  0  0  0  0  0999 V2000
    1.2820   -0.0530    0.4660 N   0  0  0  0  0  0  0  0  0  0  0  0
    0.8160   -1.2000   -0.1540 C   0  0  0  0  0  0  0  0  0  0  0  0
    0.3010    0.9210    0.3350 C   0  0  0  0  0  0  0  0  0  0  0  0
   -0.8070    0.3960   -0.3140 C   0  0  0  0  0  0  0  0  0  0  0  0
   -0.4700   -0.9500   -0.6230 C   0  0  0  0  0  0  0  0  0  0  0  0
    1.4770   -2.3650   -0.3220 N   0  0  0  0  0  0  0  0  0  0  0  0
   -1.1840   -1.9060   -1.2750 N   0  0  0  0  0  0  0  0  0  0  0  0
    2.4770    0.1970    1.0920 N   0  0  0  0  0  0  0  0  0  0  0  0
   -2.0320    1.1390   -0.6000 C   0  0  0  0  0  0  0  0  0  0  0  0
    0.7490   -3.2920   -0.9720 C   0  0  0  0  0  0  0  0  0  0  0  0
   -0.5340   -3.0730   -1.4280 C   0  0  0  0  0  0  0  0  0  0  0  0
    3.1190   -0.8000    1.5940 C   0  0  0  0  0  0  0  0  0  0  0  0
    0.5210    2.1570    0.8290 N   0  0  0  0  0  0  0  0  0  0  0  0
   -2.1870    2.3150   -0.2790 O   0  0  0  0  0  0  0  0  0  0  0  0
    6.1990    0.7630    3.0590 N   0  0  0  0  0  0  0  0  0  0  0  0
    4.4040   -0.6700    2.2820 C   0  0  0  0  0  0  0  0  0  0  0  0
   -3.0110    0.4270   -1.2580 N   0  0  0  0  0  0  0  0  0  0  0  0
    5.0040    0.5740    2.4280 C   0  0  0  0  0  0  0  0  0  0  0  0
    6.8000   -0.3510    3.5550 C   0  0  0  0  0  0  0  0  0  0  0  0
   -1.2210   -4.1240   -2.1150 C   0  0  0  0  0  0  0  0  0  0  0  0
    1.3540   -4.5710   -1.1880 C   0  0  0  0  0  0  0  0  0  0  0  0
    5.0400   -1.7890    2.7990 C   0  0  0  0  0  0  0  0  0  0  0  0
   -4.3000    0.9310   -1.6470 C   0  0  0  0  0  0  0  0  0  0  0  0
   -5.3060    0.8160   -0.5160 C   0  0  0  0  0  0  0  0  0  0  0  0
   -6.6800    1.3340   -0.9150 C   0  0  0  0  0  0  0  0  0  0  0  0
    6.2640   -1.6300    3.4500 C   0  0  0  0  0  0  0  0  0  0  0  0
   -7.6820    1.2170    0.2190 C   0  0  0  0  0  0  0  0  0  0  0  0
   -0.6180   -5.3650   -2.3200 C   0  0  0  0  0  0  0  0  0  0  0  0
    0.6740   -5.5880   -1.8550 C   0  0  0  0  0  0  0  0  0  0  0  0
    2.6860   -1.7850    1.5020 H   0  0  0  0  0  0  0  0  0  0  0  0
   -0.1930    2.8670    0.7490 H   0  0  0  0  0  0  0  0  0  0  0  0
    1.3990    2.3720    1.2790 H   0  0  0  0  0  0  0  0  0  0  0  0
   -2.8050   -0.5350   -1.4880 H   0  0  0  0  0  0  0  0  0  0  0  0
    4.4980    1.4370    2.0210 H   0  0  0  0  0  0  0  0  0  0  0  0
    7.7480   -0.2360    4.0590 H   0  0  0  0  0  0  0  0  0  0  0  0
   -2.2230   -3.9530   -2.4810 H   0  0  0  0  0  0  0  0  0  0  0  0
    2.3560   -4.7510   -0.8270 H   0  0  0  0  0  0  0  0  0  0  0  0
    4.5950   -2.7680    2.6990 H   0  0  0  0  0  0  0  0  0  0  0  0
   -4.6610    0.3590   -2.5020 H   0  0  0  0  0  0  0  0  0  0  0  0
   -4.2010    1.9800   -1.9270 H   0  0  0  0  0  0  0  0  0  0  0  0
   -4.9460    1.3950    0.3350 H   0  0  0  0  0  0  0  0  0  0  0  0
   -5.3950   -0.2320   -0.2310 H   0  0  0  0  0  0  0  0  0  0  0  0
   -7.0410    0.7550   -1.7650 H   0  0  0  0  0  0  0  0  0  0  0  0
   -6.5920    2.3820   -1.2000 H   0  0  0  0  0  0  0  0  0  0  0  0
    6.7840   -2.4820    3.8630 H   0  0  0  0  0  0  0  0  0  0  0  0
   -7.7780    0.1720    0.5130 H   0  0  0  0  0  0  0  0  0  0  0  0
   -8.6510    1.5920   -0.1120 H   0  0  0  0  0  0  0  0  0  0  0  0
   -7.3370    1.8030    1.0710 H   0  0  0  0  0  0  0  0  0  0  0  0
   -1.1520   -6.1490   -2.8370 H   0  0  0  0  0  0  0  0  0  0  0  0
    1.1480   -6.5460   -2.0100 H   0  0  0  0  0  0  0  0  0  0  0  0
  1  2  1  0  0  0  0
  1  3  1  0  0  0  0
  1  8  1  0  0  0  0
  2  5  2  0  0  0  0
  2  6  1  0  0  0  0
  3  4  2  0  0  0  0
  3 13  1  0  0  0  0
  4  5  1  0  0  0  0
  4  9  1  0  0  0  0
  5  7  1  0  0  0  0
  6 10  2  0  0  0  0
  7 11  2  0  0  0  0
  8 12  2  0  0  0  0
  9 14  2  0  0  0  0
  9 17  1  0  0  0  0
 10 11  1  0  0  0  0
 10 21  1  0  0  0  0
 11 20  1  0  0  0  0
 12 16  1  0  0  0  0
 12 30  1  0  0  0  0
 13 31  1  0  0  0  0
 13 32  1  0  0  0  0
 15 18  2  0  0  0  0
 15 19  1  0  0  0  0
 16 18  1  0  0  0  0
 16 22  2  0  0  0  0
 17 23  1  0  0  0  0
 17 33  1  0  0  0  0
 18 34  1  0  0  0  0
 19 26  2  0  0  0  0
 19 35  1  0  0  0  0
 20 28  2  0  0  0  0
 20 36  1  0  0  0  0
 21 29  2  0  0  0  0
 21 37  1  0  0  0  0
 22 26  1  0  0  0  0
 22 38  1  0  0  0  0
 23 24  1  0  0  0  0
 23 39  1  0  0  0  0
 23 40  1  0  0  0  0
 24 25  1  0  0  0  0
 24 41  1  0  0  0  0
 24 42  1  0  0  0  0
 25 27  1  0  0  0  0
 25 43  1  0  0  0  0
 25 44  1  0  0  0  0
 26 45  1  0  0  0  0
 27 46  1  0  0  0  0
 27 47  1  0  0  0  0
 27 48  1  0  0  0  0
 28 29  1  0  0  0  0
 28 49  1  0  0  0  0
 29 50  1  0  0  0  0
M  END
>  <$CLUSTER>
529

>  <INDEX>
345754

$$$$
InterBioScreen STOCK3S-78107
  MOE2020           3D

 37 40  0  0  0  0  0  0  0  0999 V2000
   -0.9880    0.2410    0.1790 N   0  0  0  0  0  0  0  0  0  0  0  0
   -0.3580    1.4680    0.0690 C   0  0  0  0  0  0  0  0  0  0  0  0
   -0.1690   -0.8760    0.1880 C   0  0  0  0  0  0  0  0  0  0  0  0
    1.2550   -0.4770    0.0800 C   0  0  0  0  0  0  0  0  0  0  0  0
    1.3910    1.2320   -0.0210 S   0  0  0  0  0  0  0  0  0  0  0  0
    2.2510   -1.3680    0.0690 C   0  0  0  0  0  0  0  0  0  0  0  0
   -2.4390    0.0570    0.2780 C   0  0  0  0  0  0  0  0  0  0  0  0
   -1.0440    2.9910    0.0170 S   0  0  0  0  0  0  0  0  0  0  0  0
   -3.9850   -1.5700   -2.8180 C   0  0  0  0  0  0  0  0  0  0  0  0
   -4.2610   -0.4560   -3.6110 C   0  0  0  0  0  0  0  0  0  0  0  0
   -0.5390   -2.0440    0.2670 O   0  0  0  0  0  0  0  0  0  0  0  0
   -4.3500   -2.7180   -3.4030 O   0  0  0  0  0  0  0  0  0  0  0  0
   -4.8210   -0.7890   -4.7790 O   0  0  0  0  0  0  0  0  0  0  0  0
   -4.8840   -2.2280   -4.6550 C   0  0  0  0  0  0  0  0  0  0  0  0
   -3.3920   -1.4070   -1.5630 C   0  0  0  0  0  0  0  0  0  0  0  0
   -3.0800   -0.1260   -1.0910 C   0  0  0  0  0  0  0  0  0  0  0  0
    3.7190   -1.0970   -0.0340 C   0  0  0  0  0  0  0  0  0  0  0  0
   -3.9400    0.8220   -3.1540 C   0  0  0  0  0  0  0  0  0  0  0  0
   -3.3460    0.9870   -1.9000 C   0  0  0  0  0  0  0  0  0  0  0  0
    6.4430   -0.6050   -0.2300 C   0  0  0  0  0  0  0  0  0  0  0  0
    8.1180   -0.3170   -0.3310 Cl  0  0  0  0  0  0  0  0  0  0  0  0
    4.6000   -1.8970    0.6460 C   0  0  0  0  0  0  0  0  0  0  0  0
    4.1710   -0.0370   -0.8290 C   0  0  0  0  0  0  0  0  0  0  0  0
    5.5430    0.2030   -0.9230 C   0  0  0  0  0  0  0  0  0  0  0  0
    5.9720   -1.6560    0.5530 C   0  0  0  0  0  0  0  0  0  0  0  0
    1.9620   -2.4060    0.1430 H   0  0  0  0  0  0  0  0  0  0  0  0
   -2.6420   -0.8260    0.8840 H   0  0  0  0  0  0  0  0  0  0  0  0
   -2.8740    0.9340    0.7570 H   0  0  0  0  0  0  0  0  0  0  0  0
   -4.3140   -2.6710   -5.4710 H   0  0  0  0  0  0  0  0  0  0  0  0
   -5.9270   -2.5370   -4.7310 H   0  0  0  0  0  0  0  0  0  0  0  0
   -3.1740   -2.2720   -0.9550 H   0  0  0  0  0  0  0  0  0  0  0  0
   -4.1510    1.6840   -3.7690 H   0  0  0  0  0  0  0  0  0  0  0  0
   -3.0910    1.9770   -1.5530 H   0  0  0  0  0  0  0  0  0  0  0  0
    4.2340   -2.7120    1.2520 H   0  0  0  0  0  0  0  0  0  0  0  0
    3.4680    0.5860   -1.3620 H   0  0  0  0  0  0  0  0  0  0  0  0
    5.9080    1.0160   -1.5340 H   0  0  0  0  0  0  0  0  0  0  0  0
    6.6680   -2.2850    1.0880 H   0  0  0  0  0  0  0  0  0  0  0  0
  1  2  1  0  0  0  0
  1  3  1  0  0  0  0
  1  7  1  0  0  0  0
  2  5  1  0  0  0  0
  2  8  2  0  0  0  0
  3  4  1  0  0  0  0
  3 11  2  0  0  0  0
  4  5  1  0  0  0  0
  4  6  2  0  0  0  0
  6 17  1  0  0  0  0
  6 26  1  0  0  0  0
  7 16  1  0  0  0  0
  7 27  1  0  0  0  0
  7 28  1  0  0  0  0
  9 10  2  0  0  0  0
  9 12  1  0  0  0  0
  9 15  1  0  0  0  0
 10 13  1  0  0  0  0
 10 18  1  0  0  0  0
 12 14  1  0  0  0  0
 13 14  1  0  0  0  0
 14 29  1  0  0  0  0
 14 30  1  0  0  0  0
 15 16  2  0  0  0  0
 15 31  1  0  0  0  0
 16 19  1  0  0  0  0
 17 22  1  0  0  0  0
 17 23  2  0  0  0  0
 18 19  2  0  0  0  0
 18 32  1  0  0  0  0
 19 33  1  0  0  0  0
 20 21  1  0  0  0  0
 20 24  2  0  0  0  0
 20 25  1  0  0  0  0
 22 25  2  0  0  0  0
 22 34  1  0  0  0  0
 23 24  1  0  0  0  0
 23 35  1  0  0  0  0
 24 36  1  0  0  0  0
 25 37  1  0  0  0  0
M  END
>  <$CLUSTER>
530

>  <INDEX>
345502

$$$$
InterBioScreen STOCK3S-83770
  MOE2020           3D

 50 53  0  0  0  0  0  0  0  0999 V2000
    0.7470    0.7730   -1.6080 N   0  0  0  0  0  0  0  0  0  0  0  0
   -0.3040    1.1890   -2.3730 N   0  0  0  0  0  0  0  0  0  0  0  0
   -1.6300    1.0680   -2.0510 C   0  0  0  0  0  0  0  0  0  0  0  0
    0.4900    0.2120   -0.4630 C   0  0  0  0  0  0  0  0  0  0  0  0
   -1.9250    0.4580   -0.7530 C   0  0  0  0  0  0  0  0  0  0  0  0
   -0.8770    0.0360    0.0570 C   0  0  0  0  0  0  0  0  0  0  0  0
    0.7210    1.3530   -6.0650 C   0  0  0  0  0  0  0  0  0  0  0  0
    1.6440   -0.2560    0.3230 C   0  0  0  0  0  0  0  0  0  0  0  0
    0.1090    1.7920   -3.6780 C   0  0  0  0  0  0  0  0  0  0  0  0
    0.2950    0.7390   -4.7590 C   0  0  0  0  0  0  0  0  0  0  0  0
   -2.5370    1.4480   -2.7880 O   0  0  0  0  0  0  0  0  0  0  0  0
    0.8950    0.4000   -7.0590 N   0  0  0  0  0  0  0  0  0  0  0  0
    0.9010    2.5500   -6.2550 O   0  0  0  0  0  0  0  0  0  0  0  0
    1.8960   -1.6240    0.4420 C   0  0  0  0  0  0  0  0  0  0  0  0
    2.4860    0.6850    0.9160 C   0  0  0  0  0  0  0  0  0  0  0  0
    1.2820    0.5370   -8.4060 C   0  0  0  0  0  0  0  0  0  0  0  0
    2.9950   -2.0530    1.1870 C   0  0  0  0  0  0  0  0  0  0  0  0
    3.5830    0.2480    1.6600 C   0  0  0  0  0  0  0  0  0  0  0  0
    3.8350   -1.1190    1.7970 C   0  0  0  0  0  0  0  0  0  0  0  0
   -3.2510    0.3200   -0.3280 C   0  0  0  0  0  0  0  0  0  0  0  0
   -1.1530   -0.5060    1.3160 C   0  0  0  0  0  0  0  0  0  0  0  0
    5.0070   -1.5860    2.5980 C   0  0  0  0  0  0  0  0  0  0  0  0
    1.3760   -0.6220   -9.1910 C   0  0  0  0  0  0  0  0  0  0  0  0
    1.5760    1.7730   -8.9920 C   0  0  0  0  0  0  0  0  0  0  0  0
   -2.4750   -0.6440    1.7430 C   0  0  0  0  0  0  0  0  0  0  0  0
   -3.5240   -0.2350    0.9210 C   0  0  0  0  0  0  0  0  0  0  0  0
    1.9550    1.8450  -10.3360 C   0  0  0  0  0  0  0  0  0  0  0  0
    1.7550   -0.5470  -10.5340 C   0  0  0  0  0  0  0  0  0  0  0  0
    2.0460    0.6880  -11.1070 C   0  0  0  0  0  0  0  0  0  0  0  0
    1.0510    2.3230   -3.5380 H   0  0  0  0  0  0  0  0  0  0  0  0
   -0.6600    2.4950   -4.0000 H   0  0  0  0  0  0  0  0  0  0  0  0
    1.0580    0.0310   -4.4350 H   0  0  0  0  0  0  0  0  0  0  0  0
   -0.6480    0.2130   -4.9070 H   0  0  0  0  0  0  0  0  0  0  0  0
    0.7140   -0.5500   -6.7680 H   0  0  0  0  0  0  0  0  0  0  0  0
    1.2470   -2.3420   -0.0370 H   0  0  0  0  0  0  0  0  0  0  0  0
    2.2910    1.7410    0.8010 H   0  0  0  0  0  0  0  0  0  0  0  0
    3.1960   -3.1090    1.2920 H   0  0  0  0  0  0  0  0  0  0  0  0
    4.2370    0.9670    2.1300 H   0  0  0  0  0  0  0  0  0  0  0  0
   -4.0610    0.6430   -0.9660 H   0  0  0  0  0  0  0  0  0  0  0  0
   -0.3430   -0.8180    1.9590 H   0  0  0  0  0  0  0  0  0  0  0  0
    5.0410   -2.6750    2.5910 H   0  0  0  0  0  0  0  0  0  0  0  0
    4.9100   -1.2320    3.6240 H   0  0  0  0  0  0  0  0  0  0  0  0
    5.9250   -1.1910    2.1630 H   0  0  0  0  0  0  0  0  0  0  0  0
    1.1530   -1.5830   -8.7520 H   0  0  0  0  0  0  0  0  0  0  0  0
    1.5100    2.6760   -8.4030 H   0  0  0  0  0  0  0  0  0  0  0  0
   -2.6860   -1.0690    2.7130 H   0  0  0  0  0  0  0  0  0  0  0  0
   -4.5460   -0.3480    1.2510 H   0  0  0  0  0  0  0  0  0  0  0  0
    2.1790    2.8040  -10.7790 H   0  0  0  0  0  0  0  0  0  0  0  0
    1.8220   -1.4470  -11.1270 H   0  0  0  0  0  0  0  0  0  0  0  0
    2.3410    0.7490  -12.1440 H   0  0  0  0  0  0  0  0  0  0  0  0
  1  2  1  0  0  0  0
  1  4  2  0  0  0  0
  2  3  1  0  0  0  0
  2  9  1  0  0  0  0
  3  5  1  0  0  0  0
  3 11  2  0  0  0  0
  4  6  1  0  0  0  0
  4  8  1  0  0  0  0
  5  6  2  0  0  0  0
  5 20  1  0  0  0  0
  6 21  1  0  0  0  0
  7 10  1  0  0  0  0
  7 12  1  0  0  0  0
  7 13  2  0  0  0  0
  8 14  2  0  0  0  0
  8 15  1  0  0  0  0
  9 10  1  0  0  0  0
  9 30  1  0  0  0  0
  9 31  1  0  0  0  0
 10 32  1  0  0  0  0
 10 33  1  0  0  0  0
 12 16  1  0  0  0  0
 12 34  1  0  0  0  0
 14 17  1  0  0  0  0
 14 35  1  0  0  0  0
 15 18  2  0  0  0  0
 15 36  1  0  0  0  0
 16 23  1  0  0  0  0
 16 24  2  0  0  0  0
 17 19  2  0  0  0  0
 17 37  1  0  0  0  0
 18 19  1  0  0  0  0
 18 38  1  0  0  0  0
 19 22  1  0  0  0  0
 20 26  2  0  0  0  0
 20 39  1  0  0  0  0
 21 25  2  0  0  0  0
 21 40  1  0  0  0  0
 22 41  1  0  0  0  0
 22 42  1  0  0  0  0
 22 43  1  0  0  0  0
 23 28  2  0  0  0  0
 23 44  1  0  0  0  0
 24 27  1  0  0  0  0
 24 45  1  0  0  0  0
 25 26  1  0  0  0  0
 25 46  1  0  0  0  0
 26 47  1  0  0  0  0
 27 29  2  0  0  0  0
 27 48  1  0  0  0  0
 28 29  1  0  0  0  0
 28 49  1  0  0  0  0
 29 50  1  0  0  0  0
M  END
>  <$CLUSTER>
531

>  <INDEX>
345888

$$$$
InterBioScreen STOCK3S-98968
  MOE2020           3D

 38 41  0  0  0  0  0  0  0  0999 V2000
   -0.4730    0.4850    0.0270 N   0  0  0  0  0  0  0  0  0  0  0  0
    0.3270   -0.2700   -0.8020 C   0  0  0  0  0  0  0  0  0  0  0  0
    0.3770   -0.2130   -2.0900 N   0  0  0  0  0  0  0  0  0  0  0  0
   -1.3540    1.4320   -0.4460 N   0  0  0  0  0  0  0  0  0  0  0  0
   -0.3640    0.2580    1.3940 C   0  0  0  0  0  0  0  0  0  0  0  0
    0.6530   -0.8080    1.6280 C   0  0  0  0  0  0  0  0  0  0  0  0
   -1.3730    1.5600   -1.7390 C   0  0  0  0  0  0  0  0  0  0  0  0
    1.3150   -1.3650    0.1300 S   0  0  0  0  0  0  0  0  0  0  0  0
   -0.4820    0.7170   -2.6340 C   0  0  0  0  0  0  0  0  0  0  0  0
    0.9700   -1.2380    2.8530 C   0  0  0  0  0  0  0  0  0  0  0  0
   -2.2840    2.5880   -2.3800 C   0  0  0  0  0  0  0  0  0  0  0  0
   -0.9820    0.8200    2.2960 O   0  0  0  0  0  0  0  0  0  0  0  0
   -0.5770    0.9160   -3.8440 O   0  0  0  0  0  0  0  0  0  0  0  0
    1.9640   -2.2940    3.2250 C   0  0  0  0  0  0  0  0  0  0  0  0
   -1.5250    3.8730   -2.6640 C   0  0  0  0  0  0  0  0  0  0  0  0
   -0.1210    6.2440   -3.1860 C   0  0  0  0  0  0  0  0  0  0  0  0
    3.8000   -4.2530    3.9210 C   0  0  0  0  0  0  0  0  0  0  0  0
    0.7350    7.6780   -3.5180 Cl  0  0  0  0  0  0  0  0  0  0  0  0
    4.9370   -5.4400    4.3650 Cl  0  0  0  0  0  0  0  0  0  0  0  0
    2.6940   -2.1550    4.3770 C   0  0  0  0  0  0  0  0  0  0  0  0
    2.1270   -3.4100    2.3950 C   0  0  0  0  0  0  0  0  0  0  0  0
   -0.8710    4.0590   -3.8900 C   0  0  0  0  0  0  0  0  0  0  0  0
   -1.4670    4.8930   -1.7050 C   0  0  0  0  0  0  0  0  0  0  0  0
   -0.1710    5.2380   -4.1490 C   0  0  0  0  0  0  0  0  0  0  0  0
    3.6200   -3.1370    4.7340 C   0  0  0  0  0  0  0  0  0  0  0  0
   -0.7670    6.0720   -1.9660 C   0  0  0  0  0  0  0  0  0  0  0  0
    3.0520   -4.3910    2.7540 C   0  0  0  0  0  0  0  0  0  0  0  0
    0.4470   -0.7680    3.6720 H   0  0  0  0  0  0  0  0  0  0  0  0
   -2.6730    2.1880   -3.3160 H   0  0  0  0  0  0  0  0  0  0  0  0
   -3.1120    2.8030   -1.7050 H   0  0  0  0  0  0  0  0  0  0  0  0
    2.5530   -1.2890    5.0060 H   0  0  0  0  0  0  0  0  0  0  0  0
    1.5450   -3.5100    1.4900 H   0  0  0  0  0  0  0  0  0  0  0  0
   -0.9090    3.2830   -4.6400 H   0  0  0  0  0  0  0  0  0  0  0  0
   -1.9680    4.7660   -0.7570 H   0  0  0  0  0  0  0  0  0  0  0  0
    0.3320    5.3710   -5.0960 H   0  0  0  0  0  0  0  0  0  0  0  0
    4.1970   -3.0310    5.6410 H   0  0  0  0  0  0  0  0  0  0  0  0
   -0.7270    6.8520   -1.2200 H   0  0  0  0  0  0  0  0  0  0  0  0
    3.1880   -5.2590    2.1260 H   0  0  0  0  0  0  0  0  0  0  0  0
  1  2  1  0  0  0  0
  1  4  1  0  0  0  0
  1  5  1  0  0  0  0
  2  3  2  0  0  0  0
  2  8  1  0  0  0  0
  3  9  1  0  0  0  0
  4  7  2  0  0  0  0
  5  6  1  0  0  0  0
  5 12  2  0  0  0  0
  6  8  1  0  0  0  0
  6 10  2  0  0  0  0
  7  9  1  0  0  0  0
  7 11  1  0  0  0  0
  9 13  2  0  0  0  0
 10 14  1  0  0  0  0
 10 28  1  0  0  0  0
 11 15  1  0  0  0  0
 11 29  1  0  0  0  0
 11 30  1  0  0  0  0
 14 20  2  0  0  0  0
 14 21  1  0  0  0  0
 15 22  2  0  0  0  0
 15 23  1  0  0  0  0
 16 18  1  0  0  0  0
 16 24  2  0  0  0  0
 16 26  1  0  0  0  0
 17 19  1  0  0  0  0
 17 25  2  0  0  0  0
 17 27  1  0  0  0  0
 20 25  1  0  0  0  0
 20 31  1  0  0  0  0
 21 27  2  0  0  0  0
 21 32  1  0  0  0  0
 22 24  1  0  0  0  0
 22 33  1  0  0  0  0
 23 26  2  0  0  0  0
 23 34  1  0  0  0  0
 24 35  1  0  0  0  0
 25 36  1  0  0  0  0
 26 37  1  0  0  0  0
 27 38  1  0  0  0  0
M  END
>  <$CLUSTER>
532

>  <INDEX>
347713

$$$$
InterBioScreen STOCK5S-49647
  MOE2020           3D

 57 61  0  0  0  0  0  0  0  0999 V2000
   -1.4400   -0.4300    0.3940 C   0  0  0  0  0  0  0  0  0  0  0  0
   -1.6510    0.9260    0.4970 C   0  0  0  0  0  0  0  0  0  0  0  0
   -2.3020   -1.4310    0.7170 N   0  0  0  0  0  0  0  0  0  0  0  0
   -0.1720   -0.6210   -0.1070 N   0  0  0  0  0  0  0  0  0  0  0  0
   -3.7800    0.3550    1.3190 N   0  0  0  0  0  0  0  0  0  0  0  0
   -3.4370   -0.9860    1.1660 C   0  0  0  0  0  0  0  0  0  0  0  0
   -2.9200    1.4070    0.9980 C   0  0  0  0  0  0  0  0  0  0  0  0
    0.4500    0.6100   -0.3080 C   0  0  0  0  0  0  0  0  0  0  0  0
   -0.4840    1.5780    0.0590 C   0  0  0  0  0  0  0  0  0  0  0  0
    1.8110    0.8110   -0.7940 C   0  0  0  0  0  0  0  0  0  0  0  0
   -4.4550   -2.0190    1.5490 C   0  0  0  0  0  0  0  0  0  0  0  0
    2.1390    2.1120   -1.1240 N   0  0  0  0  0  0  0  0  0  0  0  0
   -5.0850    0.6800    1.8330 C   0  0  0  0  0  0  0  0  0  0  0  0
    0.3960   -1.9330   -0.3810 C   0  0  0  0  0  0  0  0  0  0  0  0
   -3.1930    2.5950    1.1230 O   0  0  0  0  0  0  0  0  0  0  0  0
   -5.9800   -0.2580    2.1690 C   0  0  0  0  0  0  0  0  0  0  0  0
    2.6440   -0.0870   -0.9150 O   0  0  0  0  0  0  0  0  0  0  0  0
   -5.6490   -1.6510    2.0190 C   0  0  0  0  0  0  0  0  0  0  0  0
    1.1620   -2.4920    0.8050 C   0  0  0  0  0  0  0  0  0  0  0  0
    3.4080    2.5890   -1.6190 C   0  0  0  0  0  0  0  0  0  0  0  0
   -4.0550   -3.4450    1.3730 C   0  0  0  0  0  0  0  0  0  0  0  0
    0.5620   -3.4190    1.6670 C   0  0  0  0  0  0  0  0  0  0  0  0
    2.4700   -2.0600    1.0680 C   0  0  0  0  0  0  0  0  0  0  0  0
    3.2270    3.7900   -2.5410 C   0  0  0  0  0  0  0  0  0  0  0  0
    4.3350    2.9280   -0.4540 C   0  0  0  0  0  0  0  0  0  0  0  0
    3.1770   -2.5700    2.1600 C   0  0  0  0  0  0  0  0  0  0  0  0
    1.2710   -3.9280    2.7600 C   0  0  0  0  0  0  0  0  0  0  0  0
    4.5550    4.3550   -3.0240 C   0  0  0  0  0  0  0  0  0  0  0  0
    5.6750    3.4930   -0.9310 C   0  0  0  0  0  0  0  0  0  0  0  0
    2.5780   -3.5050    3.0040 C   0  0  0  0  0  0  0  0  0  0  0  0
    5.4790    4.6890   -1.8580 C   0  0  0  0  0  0  0  0  0  0  0  0
   -0.3370    2.6470    0.0150 H   0  0  0  0  0  0  0  0  0  0  0  0
    1.4120    2.8040   -1.0060 H   0  0  0  0  0  0  0  0  0  0  0  0
   -5.3520    1.7200    1.9520 H   0  0  0  0  0  0  0  0  0  0  0  0
    1.0760   -1.8500   -1.2290 H   0  0  0  0  0  0  0  0  0  0  0  0
   -0.4130   -2.6200   -0.6300 H   0  0  0  0  0  0  0  0  0  0  0  0
   -6.9480    0.0300    2.5520 H   0  0  0  0  0  0  0  0  0  0  0  0
   -6.3730   -2.4050    2.2890 H   0  0  0  0  0  0  0  0  0  0  0  0
    3.8660    1.7930   -2.2060 H   0  0  0  0  0  0  0  0  0  0  0  0
   -3.0400   -3.4920    0.9770 H   0  0  0  0  0  0  0  0  0  0  0  0
   -4.7390   -3.9310    0.6770 H   0  0  0  0  0  0  0  0  0  0  0  0
   -4.0930   -3.9550    2.3360 H   0  0  0  0  0  0  0  0  0  0  0  0
   -0.4530   -3.7420    1.4870 H   0  0  0  0  0  0  0  0  0  0  0  0
    2.9340   -1.3290    0.4230 H   0  0  0  0  0  0  0  0  0  0  0  0
    2.6910    4.5690   -2.0000 H   0  0  0  0  0  0  0  0  0  0  0  0
    2.6420    3.4810   -3.4070 H   0  0  0  0  0  0  0  0  0  0  0  0
    4.5210    2.0220    0.1230 H   0  0  0  0  0  0  0  0  0  0  0  0
    3.8470    3.6680    0.1800 H   0  0  0  0  0  0  0  0  0  0  0  0
    4.1880   -2.2400    2.3510 H   0  0  0  0  0  0  0  0  0  0  0  0
    0.8060   -4.6490    3.4160 H   0  0  0  0  0  0  0  0  0  0  0  0
    4.3660    5.2630   -3.5970 H   0  0  0  0  0  0  0  0  0  0  0  0
    5.0420    3.6180   -3.6620 H   0  0  0  0  0  0  0  0  0  0  0  0
    6.2170    2.7140   -1.4670 H   0  0  0  0  0  0  0  0  0  0  0  0
    6.2550    3.8080   -0.0640 H   0  0  0  0  0  0  0  0  0  0  0  0
    3.1260   -3.9010    3.8460 H   0  0  0  0  0  0  0  0  0  0  0  0
    5.0450    5.5100   -1.2880 H   0  0  0  0  0  0  0  0  0  0  0  0
    6.4490    4.9930   -2.2520 H   0  0  0  0  0  0  0  0  0  0  0  0
  1  2  2  0  0  0  0
  1  3  1  0  0  0  0
  1  4  1  0  0  0  0
  2  7  1  0  0  0  0
  2  9  1  0  0  0  0
  3  6  2  0  0  0  0
  4  8  1  0  0  0  0
  4 14  1  0  0  0  0
  5  6  1  0  0  0  0
  5  7  1  0  0  0  0
  5 13  1  0  0  0  0
  6 11  1  0  0  0  0
  7 15  2  0  0  0  0
  8  9  2  0  0  0  0
  8 10  1  0  0  0  0
  9 32  1  0  0  0  0
 10 12  1  0  0  0  0
 10 17  2  0  0  0  0
 11 18  2  0  0  0  0
 11 21  1  0  0  0  0
 12 20  1  0  0  0  0
 12 33  1  0  0  0  0
 13 16  2  0  0  0  0
 13 34  1  0  0  0  0
 14 19  1  0  0  0  0
 14 35  1  0  0  0  0
 14 36  1  0  0  0  0
 16 18  1  0  0  0  0
 16 37  1  0  0  0  0
 18 38  1  0  0  0  0
 19 22  1  0  0  0  0
 19 23  2  0  0  0  0
 20 24  1  0  0  0  0
 20 25  1  0  0  0  0
 20 39  1  0  0  0  0
 21 40  1  0  0  0  0
 21 41  1  0  0  0  0
 21 42  1  0  0  0  0
 22 27  2  0  0  0  0
 22 43  1  0  0  0  0
 23 26  1  0  0  0  0
 23 44  1  0  0  0  0
 24 28  1  0  0  0  0
 24 45  1  0  0  0  0
 24 46  1  0  0  0  0
 25 29  1  0  0  0  0
 25 47  1  0  0  0  0
 25 48  1  0  0  0  0
 26 30  2  0  0  0  0
 26 49  1  0  0  0  0
 27 30  1  0  0  0  0
 27 50  1  0  0  0  0
 28 31  1  0  0  0  0
 28 51  1  0  0  0  0
 28 52  1  0  0  0  0
 29 31  1  0  0  0  0
 29 53  1  0  0  0  0
 29 54  1  0  0  0  0
 30 55  1  0  0  0  0
 31 56  1  0  0  0  0
 31 57  1  0  0  0  0
M  END
>  <$CLUSTER>
533

>  <INDEX>
378014

$$$$
Asinex BAS 09814527
  MOE2020           3D

 38 40  0  0  0  0  0  0  0  0999 V2000
   -0.2010   -0.2680   -0.0430 N   0  0  0  0  0  0  0  0  0  0  0  0
   -0.2630   -1.5560   -0.6320 C   0  0  0  0  0  0  0  0  0  0  0  0
    0.9830    0.5000    0.0830 C   0  0  0  0  0  0  0  0  0  0  0  0
    2.1870   -0.0910   -0.5550 C   0  0  0  0  0  0  0  0  0  0  0  0
    0.9520   -2.0700   -1.0770 N   0  0  0  0  0  0  0  0  0  0  0  0
    2.1930   -1.4640   -1.0990 C   0  0  0  0  0  0  0  0  0  0  0  0
    3.3290    0.6040   -0.6550 C   0  0  0  0  0  0  0  0  0  0  0  0
   -1.4300    0.2990    0.4740 C   0  0  0  0  0  0  0  0  0  0  0  0
    5.8890    6.1300    0.6730 C   0  0  0  0  0  0  0  0  0  0  0  0
   -1.2940   -2.2070   -0.8210 O   0  0  0  0  0  0  0  0  0  0  0  0
    1.0720    1.5490    0.7180 O   0  0  0  0  0  0  0  0  0  0  0  0
    5.9720    4.7090    0.0910 C   0  0  0  0  0  0  0  0  0  0  0  0
    3.6330    1.8710   -0.2590 N   0  0  0  0  0  0  0  0  0  0  0  0
    3.1960   -2.0190   -1.5390 O   0  0  0  0  0  0  0  0  0  0  0  0
    4.8210    3.9190    0.1550 C   0  0  0  0  0  0  0  0  0  0  0  0
    6.7360    6.9220    0.1690 O   0  0  0  0  0  0  0  0  0  0  0  0
   -1.7230    1.6630    0.3010 C   0  0  0  0  0  0  0  0  0  0  0  0
   -2.3630   -0.4940    1.1630 C   0  0  0  0  0  0  0  0  0  0  0  0
    4.8050    2.6060   -0.3510 C   0  0  0  0  0  0  0  0  0  0  0  0
    5.0390    6.3530    1.5830 O   0  5  0  0  0  0  0  0  0  0  0  0
   -3.8180    1.4110    1.4810 C   0  0  0  0  0  0  0  0  0  0  0  0
   -3.5450    0.0590    1.6620 C   0  0  0  0  0  0  0  0  0  0  0  0
   -2.9080    2.2130    0.8000 C   0  0  0  0  0  0  0  0  0  0  0  0
   -5.2630    2.0680    2.0940 Cl  0  0  0  0  0  0  0  0  0  0  0  0
    7.1320    4.2010   -0.4840 C   0  0  0  0  0  0  0  0  0  0  0  0
    7.1390    2.9050   -0.9920 C   0  0  0  0  0  0  0  0  0  0  0  0
    5.9870    2.1150   -0.9270 C   0  0  0  0  0  0  0  0  0  0  0  0
    0.9220   -3.0150   -1.4320 H   0  0  0  0  0  0  0  0  0  0  0  0
    4.1410    0.0720   -1.1270 H   0  0  0  0  0  0  0  0  0  0  0  0
    2.8680    2.3630    0.1800 H   0  0  0  0  0  0  0  0  0  0  0  0
    3.9250    4.3250    0.6020 H   0  0  0  0  0  0  0  0  0  0  0  0
   -1.0230    2.2950   -0.2250 H   0  0  0  0  0  0  0  0  0  0  0  0
   -2.1640   -1.5450    1.3090 H   0  0  0  0  0  0  0  0  0  0  0  0
   -4.2500   -0.5660    2.1910 H   0  0  0  0  0  0  0  0  0  0  0  0
   -3.1170    3.2630    0.6560 H   0  0  0  0  0  0  0  0  0  0  0  0
    8.0230    4.8090   -0.5360 H   0  0  0  0  0  0  0  0  0  0  0  0
    8.0390    2.5080   -1.4390 H   0  0  0  0  0  0  0  0  0  0  0  0
    6.0070    1.1120   -1.3260 H   0  0  0  0  0  0  0  0  0  0  0  0
  1  2  1  0  0  0  0
  1  3  1  0  0  0  0
  1  8  1  0  0  0  0
  2  5  1  0  0  0  0
  2 10  2  0  0  0  0
  3  4  1  0  0  0  0
  3 11  2  0  0  0  0
  4  6  1  0  0  0  0
  4  7  2  0  0  0  0
  5  6  1  0  0  0  0
  5 28  1  0  0  0  0
  6 14  2  0  0  0  0
  7 13  1  0  0  0  0
  7 29  1  0  0  0  0
  8 17  1  0  0  0  0
  8 18  2  0  0  0  0
  9 12  1  0  0  0  0
  9 16  2  0  0  0  0
  9 20  1  0  0  0  0
 12 15  2  0  0  0  0
 12 25  1  0  0  0  0
 13 19  1  0  0  0  0
 13 30  1  0  0  0  0
 15 19  1  0  0  0  0
 15 31  1  0  0  0  0
 17 23  2  0  0  0  0
 17 32  1  0  0  0  0
 18 22  1  0  0  0  0
 18 33  1  0  0  0  0
 19 27  2  0  0  0  0
 21 22  2  0  0  0  0
 21 23  1  0  0  0  0
 21 24  1  0  0  0  0
 22 34  1  0  0  0  0
 23 35  1  0  0  0  0
 25 26  2  0  0  0  0
 25 36  1  0  0  0  0
 26 27  1  0  0  0  0
 26 37  1  0  0  0  0
 27 38  1  0  0  0  0
M  CHG  1  20  -1
M  END
>  <$CLUSTER>
534

>  <INDEX>
184727

$$$$
Asinex ASN 04049832
  MOE2020           3D

 47 49  0  0  0  0  0  0  0  0999 V2000
   -0.3340    1.9110    1.2320 N   0  0  0  0  0  0  0  0  0  0  0  0
   -0.1560    2.4050   -0.0260 C   0  0  0  0  0  0  0  0  0  0  0  0
   -0.2940    0.5770    1.5250 C   0  0  0  0  0  0  0  0  0  0  0  0
    0.0680    1.6760   -1.0710 N   0  0  0  0  0  0  0  0  0  0  0  0
   -0.0430   -0.3090    0.3810 C   0  0  0  0  0  0  0  0  0  0  0  0
    0.1280    0.2830   -0.8740 C   0  0  0  0  0  0  0  0  0  0  0  0
   -0.2370    4.1330   -0.3430 S   0  0  0  0  0  0  0  0  0  0  0  0
   -0.4530    0.1280    2.6570 O   0  0  0  0  0  0  0  0  0  0  0  0
   -0.5630    2.8370    2.4110 C   0  0  0  0  0  0  0  0  0  0  0  0
   -0.3950    4.1800   -2.1420 C   0  0  0  0  0  0  0  0  0  0  0  0
    0.0220   -1.6940    0.5440 C   0  0  0  0  0  0  0  0  0  0  0  0
   -1.7540    3.6710   -2.6150 C   0  0  0  0  0  0  0  0  0  0  0  0
   -2.0470    3.0970    2.6350 C   0  0  0  0  0  0  0  0  0  0  0  0
    0.3670   -0.5420   -1.9780 C   0  0  0  0  0  0  0  0  0  0  0  0
   -3.6740    4.2300    3.9610 O   0  0  0  0  0  0  0  0  0  0  0  0
   -2.2660    4.0240    3.7980 C   0  0  0  0  0  0  0  0  0  0  0  0
   -3.9580    5.1000    5.0460 C   0  0  0  0  0  0  0  0  0  0  0  0
   -1.9540    2.3050   -2.8500 C   0  0  0  0  0  0  0  0  0  0  0  0
   -2.8210    4.5620   -2.7890 C   0  0  0  0  0  0  0  0  0  0  0  0
    0.2620   -2.5050   -0.5650 C   0  0  0  0  0  0  0  0  0  0  0  0
    0.4340   -1.9300   -1.8250 C   0  0  0  0  0  0  0  0  0  0  0  0
   -5.4600    5.2640    5.1490 C   0  0  0  0  0  0  0  0  0  0  0  0
   -3.2020    1.8400   -3.2710 C   0  0  0  0  0  0  0  0  0  0  0  0
   -4.0660    4.0930   -3.2100 C   0  0  0  0  0  0  0  0  0  0  0  0
   -4.2560    2.7330   -3.4520 C   0  0  0  0  0  0  0  0  0  0  0  0
   -0.0620    3.7860    2.2190 H   0  0  0  0  0  0  0  0  0  0  0  0
   -0.1440    2.3800    3.3070 H   0  0  0  0  0  0  0  0  0  0  0  0
    0.3850    3.5570   -2.5790 H   0  0  0  0  0  0  0  0  0  0  0  0
   -0.2690    5.2090   -2.4790 H   0  0  0  0  0  0  0  0  0  0  0  0
   -0.1120   -2.1340    1.5210 H   0  0  0  0  0  0  0  0  0  0  0  0
   -2.5480    2.1500    2.8360 H   0  0  0  0  0  0  0  0  0  0  0  0
   -2.4690    3.5480    1.7370 H   0  0  0  0  0  0  0  0  0  0  0  0
    0.5010   -0.1030   -2.9560 H   0  0  0  0  0  0  0  0  0  0  0  0
   -1.7760    4.9780    3.6040 H   0  0  0  0  0  0  0  0  0  0  0  0
   -1.8530    3.5800    4.7040 H   0  0  0  0  0  0  0  0  0  0  0  0
   -3.4930    6.0700    4.8710 H   0  0  0  0  0  0  0  0  0  0  0  0
   -3.5700    4.6730    5.9710 H   0  0  0  0  0  0  0  0  0  0  0  0
   -1.1410    1.6090   -2.7050 H   0  0  0  0  0  0  0  0  0  0  0  0
   -2.6800    5.6150   -2.5970 H   0  0  0  0  0  0  0  0  0  0  0  0
    0.3150   -3.5770   -0.4490 H   0  0  0  0  0  0  0  0  0  0  0  0
    0.6190   -2.5590   -2.6840 H   0  0  0  0  0  0  0  0  0  0  0  0
   -5.8430    5.6910    4.2220 H   0  0  0  0  0  0  0  0  0  0  0  0
   -5.6970    5.9280    5.9800 H   0  0  0  0  0  0  0  0  0  0  0  0
   -5.9210    4.2910    5.3190 H   0  0  0  0  0  0  0  0  0  0  0  0
   -3.3500    0.7860   -3.4570 H   0  0  0  0  0  0  0  0  0  0  0  0
   -4.8840    4.7850   -3.3490 H   0  0  0  0  0  0  0  0  0  0  0  0
   -5.2200    2.3720   -3.7800 H   0  0  0  0  0  0  0  0  0  0  0  0
  1  2  1  0  0  0  0
  1  3  1  0  0  0  0
  1  9  1  0  0  0  0
  2  4  2  0  0  0  0
  2  7  1  0  0  0  0
  3  5  1  0  0  0  0
  3  8  2  0  0  0  0
  4  6  1  0  0  0  0
  5  6  2  0  0  0  0
  5 11  1  0  0  0  0
  6 14  1  0  0  0  0
  7 10  1  0  0  0  0
  9 13  1  0  0  0  0
  9 26  1  0  0  0  0
  9 27  1  0  0  0  0
 10 12  1  0  0  0  0
 10 28  1  0  0  0  0
 10 29  1  0  0  0  0
 11 20  2  0  0  0  0
 11 30  1  0  0  0  0
 12 18  2  0  0  0  0
 12 19  1  0  0  0  0
 13 16  1  0  0  0  0
 13 31  1  0  0  0  0
 13 32  1  0  0  0  0
 14 21  2  0  0  0  0
 14 33  1  0  0  0  0
 15 16  1  0  0  0  0
 15 17  1  0  0  0  0
 16 34  1  0  0  0  0
 16 35  1  0  0  0  0
 17 22  1  0  0  0  0
 17 36  1  0  0  0  0
 17 37  1  0  0  0  0
 18 23  1  0  0  0  0
 18 38  1  0  0  0  0
 19 24  2  0  0  0  0
 19 39  1  0  0  0  0
 20 21  1  0  0  0  0
 20 40  1  0  0  0  0
 21 41  1  0  0  0  0
 22 42  1  0  0  0  0
 22 43  1  0  0  0  0
 22 44  1  0  0  0  0
 23 25  2  0  0  0  0
 23 45  1  0  0  0  0
 24 25  1  0  0  0  0
 24 46  1  0  0  0  0
 25 47  1  0  0  0  0
M  END
>  <$CLUSTER>
535

>  <INDEX>
136234

$$$$
InterBioScreen STOCK4S-17269
  MOE2020           3D

 39 40  0  0  0  0  0  0  0  0999 V2000
    0.6540    0.7390   -1.3300 N   0  0  0  0  0  0  0  0  0  0  0  0
    1.2990    0.4210    0.9170 N   0  0  0  0  0  0  0  0  0  0  0  0
    1.6570    0.7540   -0.3770 C   0  0  0  0  0  0  0  0  0  0  0  0
   -0.8500   -0.3720    0.1820 C   0  0  0  0  0  0  0  0  0  0  0  0
   -0.6480    0.3280   -1.1010 C   0  0  0  0  0  0  0  0  0  0  0  0
    0.0450   -0.0150    1.2970 C   0  0  0  0  0  0  0  0  0  0  0  0
   -1.7880   -1.3330    0.3110 C   0  0  0  0  0  0  0  0  0  0  0  0
   -4.9330   -2.2980   -0.7270 C   0  0  0  0  0  0  0  0  0  0  0  0
   -3.6080   -2.6780   -0.6780 N   0  0  0  0  0  0  0  0  0  0  0  0
   -2.6560   -1.7310   -0.6910 N   0  0  0  0  0  0  0  0  0  0  0  0
    2.8070    1.0870   -0.6590 O   0  0  0  0  0  0  0  0  0  0  0  0
   -0.3160   -0.0750    2.4710 O   0  0  0  0  0  0  0  0  0  0  0  0
   -1.5620    0.5550   -1.8920 O   0  0  0  0  0  0  0  0  0  0  0  0
   -5.3480   -1.1460   -0.8320 O   0  0  0  0  0  0  0  0  0  0  0  0
   -5.8700   -3.4750   -0.6760 C   0  0  0  0  0  0  0  0  0  0  0  0
    2.3190    0.5740    1.9480 C   0  0  0  0  0  0  0  0  0  0  0  0
    0.9980    1.2200   -2.6620 C   0  0  0  0  0  0  0  0  0  0  0  0
   -1.9590   -2.1510    1.5840 C   0  0  0  0  0  0  0  0  0  0  0  0
   -5.5790   -4.6660   -0.0590 C   0  0  0  0  0  0  0  0  0  0  0  0
   -7.1590   -3.2700   -1.2460 C   0  0  0  0  0  0  0  0  0  0  0  0
   -8.0970   -4.3030   -1.2100 C   0  0  0  0  0  0  0  0  0  0  0  0
   -6.5220   -5.6950   -0.0260 C   0  0  0  0  0  0  0  0  0  0  0  0
   -7.7780   -5.5150   -0.6030 C   0  0  0  0  0  0  0  0  0  0  0  0
   -3.3570   -3.6550   -0.6330 H   0  0  0  0  0  0  0  0  0  0  0  0
   -2.5590   -1.2340   -1.5650 H   0  0  0  0  0  0  0  0  0  0  0  0
    1.9070    0.2790    2.9130 H   0  0  0  0  0  0  0  0  0  0  0  0
    2.6380    1.6150    1.9920 H   0  0  0  0  0  0  0  0  0  0  0  0
    3.1740   -0.0580    1.7100 H   0  0  0  0  0  0  0  0  0  0  0  0
    0.1230    1.1540   -3.3090 H   0  0  0  0  0  0  0  0  0  0  0  0
    1.8010    0.6080   -3.0730 H   0  0  0  0  0  0  0  0  0  0  0  0
    1.3270    2.2570   -2.6000 H   0  0  0  0  0  0  0  0  0  0  0  0
   -2.7750   -2.8620    1.4520 H   0  0  0  0  0  0  0  0  0  0  0  0
   -2.1880   -1.4850    2.4160 H   0  0  0  0  0  0  0  0  0  0  0  0
   -1.0370   -2.6920    1.7950 H   0  0  0  0  0  0  0  0  0  0  0  0
   -4.6140   -4.8080    0.4040 H   0  0  0  0  0  0  0  0  0  0  0  0
   -7.4090   -2.3230   -1.7020 H   0  0  0  0  0  0  0  0  0  0  0  0
   -9.0720   -4.1620   -1.6540 H   0  0  0  0  0  0  0  0  0  0  0  0
   -6.2770   -6.6340    0.4480 H   0  0  0  0  0  0  0  0  0  0  0  0
   -8.5030   -6.3150   -0.5790 H   0  0  0  0  0  0  0  0  0  0  0  0
  1  3  1  0  0  0  0
  1  5  1  0  0  0  0
  1 17  1  0  0  0  0
  2  3  1  0  0  0  0
  2  6  1  0  0  0  0
  2 16  1  0  0  0  0
  3 11  2  0  0  0  0
  4  5  1  0  0  0  0
  4  6  1  0  0  0  0
  4  7  2  0  0  0  0
  5 13  2  0  0  0  0
  6 12  2  0  0  0  0
  7 10  1  0  0  0  0
  7 18  1  0  0  0  0
  8  9  1  0  0  0  0
  8 14  2  0  0  0  0
  8 15  1  0  0  0  0
  9 10  1  0  0  0  0
  9 24  1  0  0  0  0
 10 25  1  0  0  0  0
 15 19  1  0  0  0  0
 15 20  2  0  0  0  0
 16 26  1  0  0  0  0
 16 27  1  0  0  0  0
 16 28  1  0  0  0  0
 17 29  1  0  0  0  0
 17 30  1  0  0  0  0
 17 31  1  0  0  0  0
 18 32  1  0  0  0  0
 18 33  1  0  0  0  0
 18 34  1  0  0  0  0
 19 22  2  0  0  0  0
 19 35  1  0  0  0  0
 20 21  1  0  0  0  0
 20 36  1  0  0  0  0
 21 23  2  0  0  0  0
 21 37  1  0  0  0  0
 22 23  1  0  0  0  0
 22 38  1  0  0  0  0
 23 39  1  0  0  0  0
M  END
>  <$CLUSTER>
536

>  <INDEX>
351041

$$$$
InterBioScreen STOCK4S-15808
  MOE2020           3D

 33 35  0  0  0  0  0  0  0  0999 V2000
   -1.5050   -0.6320   -0.3210 C   0  0  0  0  0  0  0  0  0  0  0  0
   -0.6870    0.3100    0.3300 C   0  0  0  0  0  0  0  0  0  0  0  0
   -2.8850   -0.4350   -0.3040 C   0  0  0  0  0  0  0  0  0  0  0  0
   -3.4980    0.6140    0.3060 N   0  0  0  0  0  0  0  0  0  0  0  0
    0.7830    0.1920    0.3710 C   0  0  0  0  0  0  0  0  0  0  0  0
   -2.6910    1.5070    0.9290 C   0  0  0  0  0  0  0  0  0  0  0  0
   -1.3080    1.3990    0.9680 C   0  0  0  0  0  0  0  0  0  0  0  0
    1.6140    0.6370   -0.6760 C   0  0  0  0  0  0  0  0  0  0  0  0
   -0.9750   -1.7810   -0.9920 C   0  0  0  0  0  0  0  0  0  0  0  0
   -0.5610   -2.7190   -1.5410 N   0  0  0  0  0  0  0  0  0  0  0  0
    3.0030    0.5050   -0.5930 C   0  0  0  0  0  0  0  0  0  0  0  0
    1.3900   -0.3820    1.5040 C   0  0  0  0  0  0  0  0  0  0  0  0
   -3.4130    2.6440    1.5820 C   0  0  0  0  0  0  0  0  0  0  0  0
   -5.4760    3.4700    2.6300 N   0  0  0  0  0  0  0  0  0  0  0  0
   -3.6580   -1.3920   -0.9620 N   0  0  0  0  0  0  0  0  0  0  0  0
    3.5830   -0.0700    0.5370 C   0  0  0  0  0  0  0  0  0  0  0  0
    0.9610    1.3670   -2.1030 Cl  0  0  0  0  0  0  0  0  0  0  0  0
    2.7770   -0.5120    1.5830 C   0  0  0  0  0  0  0  0  0  0  0  0
    5.2730   -0.2380    0.6500 Cl  0  0  0  0  0  0  0  0  0  0  0  0
   -4.7370    2.4980    2.0200 C   0  0  0  0  0  0  0  0  0  0  0  0
   -2.8340    3.9090    1.7930 C   0  0  0  0  0  0  0  0  0  0  0  0
   -4.8620    4.6650    2.8110 C   0  0  0  0  0  0  0  0  0  0  0  0
   -3.5600    4.9280    2.4120 C   0  0  0  0  0  0  0  0  0  0  0  0
   -0.7160    2.1420    1.4820 H   0  0  0  0  0  0  0  0  0  0  0  0
    3.6270    0.8490   -1.4050 H   0  0  0  0  0  0  0  0  0  0  0  0
    0.7750   -0.7260    2.3220 H   0  0  0  0  0  0  0  0  0  0  0  0
   -4.6640   -1.3020   -0.9820 H   0  0  0  0  0  0  0  0  0  0  0  0
   -3.2120   -2.1750   -1.4180 H   0  0  0  0  0  0  0  0  0  0  0  0
    3.2270   -0.9570    2.4580 H   0  0  0  0  0  0  0  0  0  0  0  0
   -5.2100    1.5400    1.8620 H   0  0  0  0  0  0  0  0  0  0  0  0
   -1.8190    4.0930    1.4730 H   0  0  0  0  0  0  0  0  0  0  0  0
   -5.4180    5.4560    3.2930 H   0  0  0  0  0  0  0  0  0  0  0  0
   -3.1180    5.8990    2.5770 H   0  0  0  0  0  0  0  0  0  0  0  0
  1  2  1  0  0  0  0
  1  3  2  0  0  0  0
  1  9  1  0  0  0  0
  2  5  1  0  0  0  0
  2  7  2  0  0  0  0
  3  4  1  0  0  0  0
  3 15  1  0  0  0  0
  4  6  2  0  0  0  0
  5  8  2  0  0  0  0
  5 12  1  0  0  0  0
  6  7  1  0  0  0  0
  6 13  1  0  0  0  0
  7 24  1  0  0  0  0
  8 11  1  0  0  0  0
  8 17  1  0  0  0  0
  9 10  3  0  0  0  0
 11 16  2  0  0  0  0
 11 25  1  0  0  0  0
 12 18  2  0  0  0  0
 12 26  1  0  0  0  0
 13 20  2  0  0  0  0
 13 21  1  0  0  0  0
 14 20  1  0  0  0  0
 14 22  2  0  0  0  0
 15 27  1  0  0  0  0
 15 28  1  0  0  0  0
 16 18  1  0  0  0  0
 16 19  1  0  0  0  0
 18 29  1  0  0  0  0
 20 30  1  0  0  0  0
 21 23  2  0  0  0  0
 21 31  1  0  0  0  0
 22 23  1  0  0  0  0
 22 32  1  0  0  0  0
 23 33  1  0  0  0  0
M  END
>  <$CLUSTER>
537

>  <INDEX>
350793

$$$$
InterBioScreen STOCK4S-09498
  MOE2020           3D

 45 46  0  0  0  0  0  0  0  0999 V2000
    0.6540    0.7390   -1.3300 N   0  0  0  0  0  0  0  0  0  0  0  0
    1.2990    0.4210    0.9170 N   0  0  0  0  0  0  0  0  0  0  0  0
    1.6570    0.7540   -0.3770 C   0  0  0  0  0  0  0  0  0  0  0  0
   -0.8500   -0.3720    0.1820 C   0  0  0  0  0  0  0  0  0  0  0  0
   -0.6480    0.3280   -1.1010 C   0  0  0  0  0  0  0  0  0  0  0  0
    0.0450   -0.0150    1.2970 C   0  0  0  0  0  0  0  0  0  0  0  0
   -1.7880   -1.3330    0.3110 C   0  0  0  0  0  0  0  0  0  0  0  0
    2.8070    1.0870   -0.6590 O   0  0  0  0  0  0  0  0  0  0  0  0
   -1.5620    0.5550   -1.8920 O   0  0  0  0  0  0  0  0  0  0  0  0
   -0.3160   -0.0750    2.4710 O   0  0  0  0  0  0  0  0  0  0  0  0
   -5.4890   -3.8120   -2.1060 C   0  0  0  0  0  0  0  0  0  0  0  0
    2.3190    0.5740    1.9480 C   0  0  0  0  0  0  0  0  0  0  0  0
    0.9980    1.2200   -2.6620 C   0  0  0  0  0  0  0  0  0  0  0  0
   -2.6560   -1.7310   -0.6910 N   0  0  0  0  0  0  0  0  0  0  0  0
   -6.7850   -3.4600   -2.1910 C   0  0  0  0  0  0  0  0  0  0  0  0
   -3.6800   -2.7220   -0.7190 C   0  0  0  0  0  0  0  0  0  0  0  0
   -4.3860   -2.7660   -2.0630 C   0  0  0  0  0  0  0  0  0  0  0  0
   -1.9590   -2.1510    1.5840 C   0  0  0  0  0  0  0  0  0  0  0  0
   -5.0580   -5.2580   -2.0790 C   0  0  0  0  0  0  0  0  0  0  0  0
   -7.9150   -4.4460   -2.2210 C   0  0  0  0  0  0  0  0  0  0  0  0
   -6.1630   -6.2320   -2.4910 C   0  0  0  0  0  0  0  0  0  0  0  0
   -7.4920   -5.8640   -1.8430 C   0  0  0  0  0  0  0  0  0  0  0  0
    1.9070    0.2790    2.9130 H   0  0  0  0  0  0  0  0  0  0  0  0
    2.6380    1.6150    1.9920 H   0  0  0  0  0  0  0  0  0  0  0  0
    3.1740   -0.0580    1.7100 H   0  0  0  0  0  0  0  0  0  0  0  0
    0.1230    1.1540   -3.3090 H   0  0  0  0  0  0  0  0  0  0  0  0
    1.8010    0.6080   -3.0730 H   0  0  0  0  0  0  0  0  0  0  0  0
    1.3270    2.2570   -2.6000 H   0  0  0  0  0  0  0  0  0  0  0  0
   -2.5430   -1.2280   -1.5600 H   0  0  0  0  0  0  0  0  0  0  0  0
   -7.0250   -2.4080   -2.2400 H   0  0  0  0  0  0  0  0  0  0  0  0
   -3.2330   -3.6970   -0.5230 H   0  0  0  0  0  0  0  0  0  0  0  0
   -4.4120   -2.4950    0.0570 H   0  0  0  0  0  0  0  0  0  0  0  0
   -4.8240   -1.7880   -2.2600 H   0  0  0  0  0  0  0  0  0  0  0  0
   -3.6530   -2.9980   -2.8360 H   0  0  0  0  0  0  0  0  0  0  0  0
   -2.7750   -2.8620    1.4520 H   0  0  0  0  0  0  0  0  0  0  0  0
   -2.1880   -1.4850    2.4160 H   0  0  0  0  0  0  0  0  0  0  0  0
   -1.0370   -2.6920    1.7950 H   0  0  0  0  0  0  0  0  0  0  0  0
   -4.2180   -5.3800   -2.7630 H   0  0  0  0  0  0  0  0  0  0  0  0
   -4.7410   -5.5050   -1.0660 H   0  0  0  0  0  0  0  0  0  0  0  0
   -8.6810   -4.1150   -1.5200 H   0  0  0  0  0  0  0  0  0  0  0  0
   -8.3300   -4.4660   -3.2290 H   0  0  0  0  0  0  0  0  0  0  0  0
   -6.2760   -6.2040   -3.5750 H   0  0  0  0  0  0  0  0  0  0  0  0
   -5.8830   -7.2390   -2.1810 H   0  0  0  0  0  0  0  0  0  0  0  0
   -7.3890   -5.9280   -0.7600 H   0  0  0  0  0  0  0  0  0  0  0  0
   -8.2570   -6.5650   -2.1770 H   0  0  0  0  0  0  0  0  0  0  0  0
  1  3  1  0  0  0  0
  1  5  1  0  0  0  0
  1 13  1  0  0  0  0
  2  3  1  0  0  0  0
  2  6  1  0  0  0  0
  2 12  1  0  0  0  0
  3  8  2  0  0  0  0
  4  5  1  0  0  0  0
  4  6  1  0  0  0  0
  4  7  2  0  0  0  0
  5  9  2  0  0  0  0
  6 10  2  0  0  0  0
  7 14  1  0  0  0  0
  7 18  1  0  0  0  0
 11 15  2  0  0  0  0
 11 17  1  0  0  0  0
 11 19  1  0  0  0  0
 12 23  1  0  0  0  0
 12 24  1  0  0  0  0
 12 25  1  0  0  0  0
 13 26  1  0  0  0  0
 13 27  1  0  0  0  0
 13 28  1  0  0  0  0
 14 16  1  0  0  0  0
 14 29  1  0  0  0  0
 15 20  1  0  0  0  0
 15 30  1  0  0  0  0
 16 17  1  0  0  0  0
 16 31  1  0  0  0  0
 16 32  1  0  0  0  0
 17 33  1  0  0  0  0
 17 34  1  0  0  0  0
 18 35  1  0  0  0  0
 18 36  1  0  0  0  0
 18 37  1  0  0  0  0
 19 21  1  0  0  0  0
 19 38  1  0  0  0  0
 19 39  1  0  0  0  0
 20 22  1  0  0  0  0
 20 40  1  0  0  0  0
 20 41  1  0  0  0  0
 21 22  1  0  0  0  0
 21 42  1  0  0  0  0
 21 43  1  0  0  0  0
 22 44  1  0  0  0  0
 22 45  1  0  0  0  0
M  END
>  <$CLUSTER>
538

>  <INDEX>
349676

$$$$
Moscow MedChem Labs SF082299
  MOE2020           3D

 36 39  0  0  0  0  0  0  0  0999 V2000
    0.1700   -0.0540    0.0560 N   0  0  0  0  0  0  0  0  0  0  0  0
    0.1340   -1.3660   -0.2850 C   0  0  0  0  0  0  0  0  0  0  0  0
    1.3890    0.4910    0.4040 C   0  0  0  0  0  0  0  0  0  0  0  0
    2.3960   -0.5860    0.3020 C   0  0  0  0  0  0  0  0  0  0  0  0
   -1.0560   -1.7990   -0.6000 N   0  0  0  0  0  0  0  0  0  0  0  0
    1.6800   -2.1110   -0.2090 S   0  0  0  0  0  0  0  0  0  0  0  0
   -1.1070    0.4330   -0.0400 C   0  0  0  0  0  0  0  0  0  0  0  0
   -1.8550   -0.6800   -0.4520 C   0  0  0  0  0  0  0  0  0  0  0  0
    3.7030   -0.4700    0.5570 C   0  0  0  0  0  0  0  0  0  0  0  0
    5.8610    2.9940    1.8050 C   0  0  0  0  0  0  0  0  0  0  0  0
    6.2240    1.7330    2.2720 C   0  0  0  0  0  0  0  0  0  0  0  0
    6.6320    4.0820    2.2690 O   0  0  0  0  0  0  0  0  0  0  0  0
    6.2690    5.3850    1.7940 C   0  0  0  0  0  0  0  0  0  0  0  0
    1.4980    1.6620    0.7220 O   0  0  0  0  0  0  0  0  0  0  0  0
    4.4630    0.7400    0.9960 C   0  0  0  0  0  0  0  0  0  0  0  0
    5.5130    0.6050    1.8600 C   0  0  0  0  0  0  0  0  0  0  0  0
    5.3460    5.5690    1.0290 O   0  0  0  0  0  0  0  0  0  0  0  0
    4.7910    3.1270    0.9220 C   0  0  0  0  0  0  0  0  0  0  0  0
    7.5470    1.5110    3.3680 Cl  0  0  0  0  0  0  0  0  0  0  0  0
    4.0790    1.9990    0.5110 C   0  0  0  0  0  0  0  0  0  0  0  0
   -1.6780    1.6890    0.1830 C   0  0  0  0  0  0  0  0  0  0  0  0
   -3.2380   -0.5370   -0.6530 C   0  0  0  0  0  0  0  0  0  0  0  0
    7.1680    6.3900    2.3730 C   0  0  0  0  0  0  0  0  0  0  0  0
   -3.0570    1.8070   -0.0240 C   0  0  0  0  0  0  0  0  0  0  0  0
   -3.8240    0.7150   -0.4350 C   0  0  0  0  0  0  0  0  0  0  0  0
    4.2870   -1.3690    0.4290 H   0  0  0  0  0  0  0  0  0  0  0  0
    5.7920   -0.3730    2.2230 H   0  0  0  0  0  0  0  0  0  0  0  0
    4.5120    4.1040    0.5550 H   0  0  0  0  0  0  0  0  0  0  0  0
    3.2460    2.0940   -0.1700 H   0  0  0  0  0  0  0  0  0  0  0  0
   -1.0810    2.5310    0.5010 H   0  0  0  0  0  0  0  0  0  0  0  0
   -3.8380   -1.3770   -0.9700 H   0  0  0  0  0  0  0  0  0  0  0  0
    7.8930    5.8980    3.0220 H   0  0  0  0  0  0  0  0  0  0  0  0
    6.5870    7.1060    2.9540 H   0  0  0  0  0  0  0  0  0  0  0  0
    7.6930    6.9120    1.5730 H   0  0  0  0  0  0  0  0  0  0  0  0
   -3.5370    2.7610    0.1370 H   0  0  0  0  0  0  0  0  0  0  0  0
   -4.8860    0.8390   -0.5870 H   0  0  0  0  0  0  0  0  0  0  0  0
  1  2  1  0  0  0  0
  1  3  1  0  0  0  0
  1  7  1  0  0  0  0
  2  5  2  0  0  0  0
  2  6  1  0  0  0  0
  3  4  1  0  0  0  0
  3 14  2  0  0  0  0
  4  6  1  0  0  0  0
  4  9  2  0  0  0  0
  5  8  1  0  0  0  0
  7  8  1  0  0  0  0
  7 21  2  0  0  0  0
  8 22  2  0  0  0  0
  9 15  1  0  0  0  0
  9 26  1  0  0  0  0
 10 11  1  0  0  0  0
 10 12  1  0  0  0  0
 10 18  2  0  0  0  0
 11 16  2  0  0  0  0
 11 19  1  0  0  0  0
 12 13  1  0  0  0  0
 13 17  2  0  0  0  0
 13 23  1  0  0  0  0
 15 16  1  0  0  0  0
 15 20  2  0  0  0  0
 16 27  1  0  0  0  0
 18 20  1  0  0  0  0
 18 28  1  0  0  0  0
 20 29  1  0  0  0  0
 21 24  1  0  0  0  0
 21 30  1  0  0  0  0
 22 25  1  0  0  0  0
 22 31  1  0  0  0  0
 23 32  1  0  0  0  0
 23 33  1  0  0  0  0
 23 34  1  0  0  0  0
 24 25  2  0  0  0  0
 24 35  1  0  0  0  0
 25 36  1  0  0  0  0
M  END
>  <$CLUSTER>
539

>  <INDEX>
626208

$$$$
InterBioScreen STOCK4S-97431
  MOE2020           3D

 42 44  0  0  0  0  0  0  0  0999 V2000
   -0.1210    0.2690   -0.1510 N   0  0  0  0  0  0  0  0  0  0  0  0
   -0.0450    0.5310   -1.5260 C   0  0  0  0  0  0  0  0  0  0  0  0
    0.3420   -0.9280    0.4250 C   0  0  0  0  0  0  0  0  0  0  0  0
    0.6050   -0.4000   -2.2970 N   0  0  0  0  0  0  0  0  0  0  0  0
    0.9400   -1.9180   -0.5090 C   0  0  0  0  0  0  0  0  0  0  0  0
    1.1440   -1.5910   -1.9200 C   0  0  0  0  0  0  0  0  0  0  0  0
   -0.6820    1.2340    0.7580 C   0  0  0  0  0  0  0  0  0  0  0  0
   -0.7190    1.8370   -2.3660 S   0  0  0  0  0  0  0  0  0  0  0  0
   -0.1670    2.5380    0.8270 C   0  0  0  0  0  0  0  0  0  0  0  0
    1.2770   -3.1090    0.0060 C   0  0  0  0  0  0  0  0  0  0  0  0
    0.3070   -1.1710    1.6340 O   0  0  0  0  0  0  0  0  0  0  0  0
    1.7380   -2.2990   -2.7300 O   0  0  0  0  0  0  0  0  0  0  0  0
   -0.7060    3.4640    1.7240 C   0  0  0  0  0  0  0  0  0  0  0  0
    1.8320   -4.2210   -0.5770 N   0  0  0  0  0  0  0  0  0  0  0  0
   -1.7270    0.8690    1.6220 C   0  0  0  0  0  0  0  0  0  0  0  0
   -0.0090    5.1780    1.7800 Br  0  0  0  0  0  0  0  0  0  0  0  0
    3.1060   -7.7660   -0.2970 C   0  0  0  0  0  0  0  0  0  0  0  0
   -2.2640    1.7990    2.5150 C   0  0  0  0  0  0  0  0  0  0  0  0
   -1.7550    3.0960    2.5630 C   0  0  0  0  0  0  0  0  0  0  0  0
    2.1560   -5.4500    0.0590 C   0  0  0  0  0  0  0  0  0  0  0  0
    2.7530   -6.4210   -0.9450 C   0  0  0  0  0  0  0  0  0  0  0  0
    2.1550   -8.7850   -0.2400 C   0  0  0  0  0  0  0  0  0  0  0  0
    4.3650   -7.9570    0.2710 C   0  0  0  0  0  0  0  0  0  0  0  0
    2.4710  -10.0010    0.3680 C   0  0  0  0  0  0  0  0  0  0  0  0
    4.6790   -9.1740    0.8790 C   0  0  0  0  0  0  0  0  0  0  0  0
    3.7330  -10.1940    0.9260 C   0  0  0  0  0  0  0  0  0  0  0  0
    0.6950   -0.1700   -3.2760 H   0  0  0  0  0  0  0  0  0  0  0  0
    0.6500    2.8270    0.1830 H   0  0  0  0  0  0  0  0  0  0  0  0
    1.0770   -3.2110    1.0620 H   0  0  0  0  0  0  0  0  0  0  0  0
    2.0320   -4.1590   -1.5650 H   0  0  0  0  0  0  0  0  0  0  0  0
   -2.1180   -0.1370    1.5960 H   0  0  0  0  0  0  0  0  0  0  0  0
   -3.0740    1.5130    3.1690 H   0  0  0  0  0  0  0  0  0  0  0  0
   -2.1740    3.8150    3.2510 H   0  0  0  0  0  0  0  0  0  0  0  0
    2.8790   -5.2640    0.8530 H   0  0  0  0  0  0  0  0  0  0  0  0
    1.2510   -5.8840    0.4850 H   0  0  0  0  0  0  0  0  0  0  0  0
    2.0300   -6.5930   -1.7430 H   0  0  0  0  0  0  0  0  0  0  0  0
    3.6590   -5.9830   -1.3640 H   0  0  0  0  0  0  0  0  0  0  0  0
    1.1740   -8.6330   -0.6660 H   0  0  0  0  0  0  0  0  0  0  0  0
    5.0970   -7.1640    0.2410 H   0  0  0  0  0  0  0  0  0  0  0  0
    1.7370  -10.7920    0.4060 H   0  0  0  0  0  0  0  0  0  0  0  0
    5.6560   -9.3240    1.3130 H   0  0  0  0  0  0  0  0  0  0  0  0
    3.9770  -11.1360    1.3950 H   0  0  0  0  0  0  0  0  0  0  0  0
  1  2  1  0  0  0  0
  1  3  1  0  0  0  0
  1  7  1  0  0  0  0
  2  4  1  0  0  0  0
  2  8  2  0  0  0  0
  3  5  1  0  0  0  0
  3 11  2  0  0  0  0
  4  6  1  0  0  0  0
  4 27  1  0  0  0  0
  5  6  1  0  0  0  0
  5 10  2  0  0  0  0
  6 12  2  0  0  0  0
  7  9  2  0  0  0  0
  7 15  1  0  0  0  0
  9 13  1  0  0  0  0
  9 28  1  0  0  0  0
 10 14  1  0  0  0  0
 10 29  1  0  0  0  0
 13 16  1  0  0  0  0
 13 19  2  0  0  0  0
 14 20  1  0  0  0  0
 14 30  1  0  0  0  0
 15 18  2  0  0  0  0
 15 31  1  0  0  0  0
 17 21  1  0  0  0  0
 17 22  2  0  0  0  0
 17 23  1  0  0  0  0
 18 19  1  0  0  0  0
 18 32  1  0  0  0  0
 19 33  1  0  0  0  0
 20 21  1  0  0  0  0
 20 34  1  0  0  0  0
 20 35  1  0  0  0  0
 21 36  1  0  0  0  0
 21 37  1  0  0  0  0
 22 24  1  0  0  0  0
 22 38  1  0  0  0  0
 23 25  2  0  0  0  0
 23 39  1  0  0  0  0
 24 26  2  0  0  0  0
 24 40  1  0  0  0  0
 25 26  1  0  0  0  0
 25 41  1  0  0  0  0
 26 42  1  0  0  0  0
M  END
>  <$CLUSTER>
540

>  <INDEX>
363533

$$$$
InterBioScreen STOCK5S-52550
  MOE2020           3D

 32 33  0  0  0  0  0  0  0  0999 V2000
    2.7890    2.3360    0.6760 C   0  0  0  0  0  0  0  0  0  0  0  0
    3.9940    2.5380    0.1220 N   0  0  0  0  0  0  0  0  0  0  0  0
    2.5520    3.1610    1.7490 N   0  0  0  0  0  0  0  0  0  0  0  0
    3.6330    3.9160    1.8920 N   0  0  0  0  0  0  0  0  0  0  0  0
   -0.4530   -1.4310   -1.4270 C   0  0  0  0  0  0  0  0  0  0  0  0
   -0.1790   -2.2270   -2.4940 N   0  3  0  0  0  0  0  0  0  0  0  0
    4.4520    3.5150    0.9150 N   0  0  0  0  0  0  0  0  0  0  0  0
    1.8730    1.4110    0.2360 N   0  0  0  0  0  0  0  0  0  0  0  0
    0.4470   -0.5150   -0.9890 O   0  0  0  0  0  0  0  0  0  0  0  0
   -0.1140    0.1190    0.0850 C   0  0  0  0  0  0  0  0  0  0  0  0
    0.6240    1.1550    0.7630 C   0  0  0  0  0  0  0  0  0  0  0  0
   -1.5890   -1.4010   -0.6550 C   0  0  0  0  0  0  0  0  0  0  0  0
   -1.3720   -0.4000    0.3230 C   0  0  0  0  0  0  0  0  0  0  0  0
   -1.0250   -3.0560   -2.8700 O   0  5  0  0  0  0  0  0  0  0  0  0
    0.9310   -2.0660   -3.0350 O   0  0  0  0  0  0  0  0  0  0  0  0
    0.1890    1.7710    1.7340 O   0  0  0  0  0  0  0  0  0  0  0  0
    5.7600    4.1040    0.7230 C   0  0  0  0  0  0  0  0  0  0  0  0
    5.7170    5.2970   -0.2140 C   0  0  0  0  0  0  0  0  0  0  0  0
    7.0940    5.9110   -0.4260 C   0  0  0  0  0  0  0  0  0  0  0  0
    7.0420    7.1030   -1.3660 C   0  0  0  0  0  0  0  0  0  0  0  0
    2.1450    0.8560   -0.5630 H   0  0  0  0  0  0  0  0  0  0  0  0
   -2.4690   -2.0160   -0.7710 H   0  0  0  0  0  0  0  0  0  0  0  0
   -2.0570   -0.1010    1.1030 H   0  0  0  0  0  0  0  0  0  0  0  0
    6.4260    3.3510    0.3030 H   0  0  0  0  0  0  0  0  0  0  0  0
    6.1440    4.4300    1.6900 H   0  0  0  0  0  0  0  0  0  0  0  0
    5.0570    6.0530    0.2110 H   0  0  0  0  0  0  0  0  0  0  0  0
    5.3250    4.9720   -1.1780 H   0  0  0  0  0  0  0  0  0  0  0  0
    7.7550    5.1560   -0.8500 H   0  0  0  0  0  0  0  0  0  0  0  0
    7.4860    6.2380    0.5370 H   0  0  0  0  0  0  0  0  0  0  0  0
    6.6510    6.7860   -2.3330 H   0  0  0  0  0  0  0  0  0  0  0  0
    8.0460    7.5080   -1.4950 H   0  0  0  0  0  0  0  0  0  0  0  0
    6.3920    7.8700   -0.9440 H   0  0  0  0  0  0  0  0  0  0  0  0
  1  2  2  0  0  0  0
  1  3  1  0  0  0  0
  1  8  1  0  0  0  0
  2  7  1  0  0  0  0
  3  4  2  0  0  0  0
  4  7  1  0  0  0  0
  5  6  1  0  0  0  0
  5  9  1  0  0  0  0
  5 12  2  0  0  0  0
  6 14  1  0  0  0  0
  6 15  2  0  0  0  0
  7 17  1  0  0  0  0
  8 11  1  0  0  0  0
  8 21  1  0  0  0  0
  9 10  1  0  0  0  0
 10 11  1  0  0  0  0
 10 13  2  0  0  0  0
 11 16  2  0  0  0  0
 12 13  1  0  0  0  0
 12 22  1  0  0  0  0
 13 23  1  0  0  0  0
 17 18  1  0  0  0  0
 17 24  1  0  0  0  0
 17 25  1  0  0  0  0
 18 19  1  0  0  0  0
 18 26  1  0  0  0  0
 18 27  1  0  0  0  0
 19 20  1  0  0  0  0
 19 28  1  0  0  0  0
 19 29  1  0  0  0  0
 20 30  1  0  0  0  0
 20 31  1  0  0  0  0
 20 32  1  0  0  0  0
M  CHG  1   6   1
M  CHG  1  14  -1
M  END
>  <$CLUSTER>
541

>  <INDEX>
379060

$$$$
InterBioScreen STOCK4S-18699
  MOE2020           3D

 55 57  0  0  0  0  0  0  0  0999 V2000
   -0.8330    0.3600   -0.8420 N   0  0  0  0  0  0  0  0  0  0  0  0
    0.7890   -0.3960    0.8350 C   0  0  0  0  0  0  0  0  0  0  0  0
   -1.6810    0.8820    0.1570 C   0  0  0  0  0  0  0  0  0  0  0  0
    0.3210   -0.4090   -0.5840 C   0  0  0  0  0  0  0  0  0  0  0  0
   -1.3120    0.5900    1.4640 N   0  0  0  0  0  0  0  0  0  0  0  0
   -0.1720   -0.0510    1.9140 C   0  0  0  0  0  0  0  0  0  0  0  0
    2.0750   -0.6770    1.1550 C   0  0  0  0  0  0  0  0  0  0  0  0
    2.5760   -0.7180    2.4350 N   0  0  0  0  0  0  0  0  0  0  0  0
   -2.7040    1.5360   -0.0620 O   0  0  0  0  0  0  0  0  0  0  0  0
    0.8900   -1.0900   -1.4340 O   0  0  0  0  0  0  0  0  0  0  0  0
   -1.2300    0.6040   -2.2530 C   0  0  0  0  0  0  0  0  0  0  0  0
    0.0080   -0.2960    3.1050 O   0  0  0  0  0  0  0  0  0  0  0  0
    3.7880   -0.7520    3.1060 C   0  0  0  0  0  0  0  0  0  0  0  0
    3.1480   -0.9310    0.1130 C   0  0  0  0  0  0  0  0  0  0  0  0
    6.2680   -0.9690    4.4450 C   0  0  0  0  0  0  0  0  0  0  0  0
    4.9710   -0.2860    2.5180 C   0  0  0  0  0  0  0  0  0  0  0  0
    3.8830   -1.3340    4.3850 C   0  0  0  0  0  0  0  0  0  0  0  0
    6.1980   -0.3900    3.1810 C   0  0  0  0  0  0  0  0  0  0  0  0
    5.1070   -1.4410    5.0490 C   0  0  0  0  0  0  0  0  0  0  0  0
    7.4060   -1.1280    5.1900 O   0  0  0  0  0  0  0  0  0  0  0  0
   -0.1180    1.2640   -3.0730 C   0  0  0  0  0  0  0  0  0  0  0  0
   -1.7560   -0.6650   -2.9270 C   0  0  0  0  0  0  0  0  0  0  0  0
    8.6280   -0.6610    4.6200 C   0  0  0  0  0  0  0  0  0  0  0  0
    3.5330   -2.3950    0.0070 C   0  0  0  0  0  0  0  0  0  0  0  0
    9.7430   -0.9390    5.6130 C   0  0  0  0  0  0  0  0  0  0  0  0
   -0.5050    1.4820   -4.5080 C   0  0  0  0  0  0  0  0  0  0  0  0
   -2.1390   -0.4400   -4.3690 C   0  0  0  0  0  0  0  0  0  0  0  0
   -1.0040    0.1990   -5.1650 C   0  0  0  0  0  0  0  0  0  0  0  0
   -1.9610    0.8840    2.1790 H   0  0  0  0  0  0  0  0  0  0  0  0
    1.8160   -0.7260    3.1000 H   0  0  0  0  0  0  0  0  0  0  0  0
   -2.0540    1.3170   -2.2190 H   0  0  0  0  0  0  0  0  0  0  0  0
    2.7770   -0.5980   -0.8560 H   0  0  0  0  0  0  0  0  0  0  0  0
    4.0350   -0.3560    0.3800 H   0  0  0  0  0  0  0  0  0  0  0  0
    4.9350    0.1610    1.5360 H   0  0  0  0  0  0  0  0  0  0  0  0
    2.9890   -1.7060    4.8630 H   0  0  0  0  0  0  0  0  0  0  0  0
    7.0960   -0.0190    2.7100 H   0  0  0  0  0  0  0  0  0  0  0  0
    5.1520   -1.8900    6.0300 H   0  0  0  0  0  0  0  0  0  0  0  0
    0.1190    2.2290   -2.6260 H   0  0  0  0  0  0  0  0  0  0  0  0
    0.7640    0.6240   -3.0430 H   0  0  0  0  0  0  0  0  0  0  0  0
   -0.9800   -1.4290   -2.8870 H   0  0  0  0  0  0  0  0  0  0  0  0
   -2.6340   -1.0110   -2.3820 H   0  0  0  0  0  0  0  0  0  0  0  0
    8.8250   -1.1860    3.6850 H   0  0  0  0  0  0  0  0  0  0  0  0
    8.5620    0.4100    4.4280 H   0  0  0  0  0  0  0  0  0  0  0  0
    2.6550   -2.9830   -0.2600 H   0  0  0  0  0  0  0  0  0  0  0  0
    3.9230   -2.7380    0.9650 H   0  0  0  0  0  0  0  0  0  0  0  0
    4.2980   -2.5150   -0.7610 H   0  0  0  0  0  0  0  0  0  0  0  0
    9.8040   -2.0110    5.8000 H   0  0  0  0  0  0  0  0  0  0  0  0
    9.5350   -0.4180    6.5480 H   0  0  0  0  0  0  0  0  0  0  0  0
   10.6900   -0.5870    5.2040 H   0  0  0  0  0  0  0  0  0  0  0  0
   -1.2970    2.2300   -4.5490 H   0  0  0  0  0  0  0  0  0  0  0  0
    0.3650    1.8430   -5.0560 H   0  0  0  0  0  0  0  0  0  0  0  0
   -2.3900   -1.4000   -4.8210 H   0  0  0  0  0  0  0  0  0  0  0  0
   -3.0080    0.2170   -4.4050 H   0  0  0  0  0  0  0  0  0  0  0  0
   -0.1770   -0.5080   -5.2310 H   0  0  0  0  0  0  0  0  0  0  0  0
   -1.3630    0.4320   -6.1670 H   0  0  0  0  0  0  0  0  0  0  0  0
  1  3  1  0  0  0  0
  1  4  1  0  0  0  0
  1 11  1  0  0  0  0
  2  4  1  0  0  0  0
  2  6  1  0  0  0  0
  2  7  2  0  0  0  0
  3  5  1  0  0  0  0
  3  9  2  0  0  0  0
  4 10  2  0  0  0  0
  5  6  1  0  0  0  0
  5 29  1  0  0  0  0
  6 12  2  0  0  0  0
  7  8  1  0  0  0  0
  7 14  1  0  0  0  0
  8 13  1  0  0  0  0
  8 30  1  0  0  0  0
 11 21  1  0  0  0  0
 11 22  1  0  0  0  0
 11 31  1  0  0  0  0
 13 16  2  0  0  0  0
 13 17  1  0  0  0  0
 14 24  1  0  0  0  0
 14 32  1  0  0  0  0
 14 33  1  0  0  0  0
 15 18  2  0  0  0  0
 15 19  1  0  0  0  0
 15 20  1  0  0  0  0
 16 18  1  0  0  0  0
 16 34  1  0  0  0  0
 17 19  2  0  0  0  0
 17 35  1  0  0  0  0
 18 36  1  0  0  0  0
 19 37  1  0  0  0  0
 20 23  1  0  0  0  0
 21 26  1  0  0  0  0
 21 38  1  0  0  0  0
 21 39  1  0  0  0  0
 22 27  1  0  0  0  0
 22 40  1  0  0  0  0
 22 41  1  0  0  0  0
 23 25  1  0  0  0  0
 23 42  1  0  0  0  0
 23 43  1  0  0  0  0
 24 44  1  0  0  0  0
 24 45  1  0  0  0  0
 24 46  1  0  0  0  0
 25 47  1  0  0  0  0
 25 48  1  0  0  0  0
 25 49  1  0  0  0  0
 26 28  1  0  0  0  0
 26 50  1  0  0  0  0
 26 51  1  0  0  0  0
 27 28  1  0  0  0  0
 27 52  1  0  0  0  0
 27 53  1  0  0  0  0
 28 54  1  0  0  0  0
 28 55  1  0  0  0  0
M  END
>  <$CLUSTER>
542

>  <INDEX>
351306

$$$$
InterBioScreen STOCK2S-27456
  MOE2020           3D

 51 53  0  0  0  0  0  0  0  0999 V2000
    0.0280   -0.1440    0.2730 N   0  0  0  0  0  0  0  0  0  0  0  0
    1.0610    0.1120    1.2080 C   0  0  0  0  0  0  0  0  0  0  0  0
   -0.1930    0.6100   -0.9050 C   0  0  0  0  0  0  0  0  0  0  0  0
    1.8680    1.2120    0.9220 N   0  0  0  0  0  0  0  0  0  0  0  0
    0.8140    1.6760   -1.1690 C   0  0  0  0  0  0  0  0  0  0  0  0
    1.8500    2.0360   -0.1860 C   0  0  0  0  0  0  0  0  0  0  0  0
   -0.8680   -1.2510    0.5440 C   0  0  0  0  0  0  0  0  0  0  0  0
    0.7410    2.3180   -2.3450 C   0  0  0  0  0  0  0  0  0  0  0  0
    1.3220   -0.5800    2.1960 O   0  0  0  0  0  0  0  0  0  0  0  0
   -1.1610    0.4790   -1.6530 O   0  0  0  0  0  0  0  0  0  0  0  0
    3.6820    4.5040   -3.7480 N   0  3  0  0  0  0  0  0  0  0  0  0
    2.6340    2.9700   -0.3270 O   0  0  0  0  0  0  0  0  0  0  0  0
   -1.3050   -2.0970   -0.4900 C   0  0  0  0  0  0  0  0  0  0  0  0
   -1.3270   -1.5110    1.8460 C   0  0  0  0  0  0  0  0  0  0  0  0
    1.5080    3.3200   -2.8550 N   0  0  0  0  0  0  0  0  0  0  0  0
   -2.1930   -2.5780    2.1040 C   0  0  0  0  0  0  0  0  0  0  0  0
   -2.1680   -3.1650   -0.2290 C   0  0  0  0  0  0  0  0  0  0  0  0
   -2.6120   -3.4060    1.0670 C   0  0  0  0  0  0  0  0  0  0  0  0
    2.4160    5.0240   -4.3190 C   0  0  0  0  0  0  0  0  0  0  0  0
    4.8750    5.3680   -4.2280 C   0  0  0  0  0  0  0  0  0  0  0  0
    3.7400    4.4120   -2.2410 C   0  0  0  0  0  0  0  0  0  0  0  0
    1.3580    3.9510   -4.1290 C   0  0  0  0  0  0  0  0  0  0  0  0
   -3.5340   -4.5460    1.3470 C   0  0  0  0  0  0  0  0  0  0  0  0
    5.0140    3.8020   -1.7560 C   0  0  0  0  0  0  0  0  0  0  0  0
    6.1960    4.7610   -3.7620 C   0  0  0  0  0  0  0  0  0  0  0  0
    6.2220    4.5940   -2.2460 C   0  0  0  0  0  0  0  0  0  0  0  0
    2.5610    1.4370    1.6210 H   0  0  0  0  0  0  0  0  0  0  0  0
   -0.0570    1.9850   -2.9930 H   0  0  0  0  0  0  0  0  0  0  0  0
    3.7330    3.5540   -4.0870 H   0  0  0  0  0  0  0  0  0  0  0  0
   -0.9690   -1.9190   -1.5010 H   0  0  0  0  0  0  0  0  0  0  0  0
   -1.0060   -0.8770    2.6600 H   0  0  0  0  0  0  0  0  0  0  0  0
    2.2630    3.6530   -2.2720 H   0  0  0  0  0  0  0  0  0  0  0  0
   -2.5380   -2.7600    3.1110 H   0  0  0  0  0  0  0  0  0  0  0  0
   -2.4910   -3.8050   -1.0360 H   0  0  0  0  0  0  0  0  0  0  0  0
    2.1200    5.9350   -3.8000 H   0  0  0  0  0  0  0  0  0  0  0  0
    2.5450    5.2360   -5.3800 H   0  0  0  0  0  0  0  0  0  0  0  0
    4.8670    5.4170   -5.3170 H   0  0  0  0  0  0  0  0  0  0  0  0
    4.7780    6.3730   -3.8180 H   0  0  0  0  0  0  0  0  0  0  0  0
    3.6520    5.4160   -1.8250 H   0  0  0  0  0  0  0  0  0  0  0  0
    2.9060    3.8010   -1.8950 H   0  0  0  0  0  0  0  0  0  0  0  0
    1.4610    3.2020   -4.9140 H   0  0  0  0  0  0  0  0  0  0  0  0
    0.3700    4.4070   -4.1890 H   0  0  0  0  0  0  0  0  0  0  0  0
   -3.7680   -4.5710    2.4110 H   0  0  0  0  0  0  0  0  0  0  0  0
   -3.0540   -5.4810    1.0580 H   0  0  0  0  0  0  0  0  0  0  0  0
   -4.4540   -4.4180    0.7760 H   0  0  0  0  0  0  0  0  0  0  0  0
    5.0120    3.7930   -0.6660 H   0  0  0  0  0  0  0  0  0  0  0  0
    5.0840    2.7800   -2.1280 H   0  0  0  0  0  0  0  0  0  0  0  0
    6.3230    3.7850   -4.2290 H   0  0  0  0  0  0  0  0  0  0  0  0
    7.0140    5.4160   -4.0620 H   0  0  0  0  0  0  0  0  0  0  0  0
    7.1320    4.0660   -1.9620 H   0  0  0  0  0  0  0  0  0  0  0  0
    6.2140    5.5790   -1.7800 H   0  0  0  0  0  0  0  0  0  0  0  0
  1  2  1  0  0  0  0
  1  3  1  0  0  0  0
  1  7  1  0  0  0  0
  2  4  1  0  0  0  0
  2  9  2  0  0  0  0
  3  5  1  0  0  0  0
  3 10  2  0  0  0  0
  4  6  1  0  0  0  0
  4 27  1  0  0  0  0
  5  6  1  0  0  0  0
  5  8  2  0  0  0  0
  6 12  2  0  0  0  0
  7 13  2  0  0  0  0
  7 14  1  0  0  0  0
  8 15  1  0  0  0  0
  8 28  1  0  0  0  0
 11 19  1  0  0  0  0
 11 20  1  0  0  0  0
 11 21  1  0  0  0  0
 11 29  1  0  0  0  0
 13 17  1  0  0  0  0
 13 30  1  0  0  0  0
 14 16  2  0  0  0  0
 14 31  1  0  0  0  0
 15 22  1  0  0  0  0
 15 32  1  0  0  0  0
 16 18  1  0  0  0  0
 16 33  1  0  0  0  0
 17 18  2  0  0  0  0
 17 34  1  0  0  0  0
 18 23  1  0  0  0  0
 19 22  1  0  0  0  0
 19 35  1  0  0  0  0
 19 36  1  0  0  0  0
 20 25  1  0  0  0  0
 20 37  1  0  0  0  0
 20 38  1  0  0  0  0
 21 24  1  0  0  0  0
 21 39  1  0  0  0  0
 21 40  1  0  0  0  0
 22 41  1  0  0  0  0
 22 42  1  0  0  0  0
 23 43  1  0  0  0  0
 23 44  1  0  0  0  0
 23 45  1  0  0  0  0
 24 26  1  0  0  0  0
 24 46  1  0  0  0  0
 24 47  1  0  0  0  0
 25 26  1  0  0  0  0
 25 48  1  0  0  0  0
 25 49  1  0  0  0  0
 26 50  1  0  0  0  0
 26 51  1  0  0  0  0
M  CHG  1  11   1
M  END
>  <$CLUSTER>
543

>  <INDEX>
336582

$$$$
Chembridge 6450312
  MOE2020           3D

 34 37  0  0  0  0  0  0  0  0999 V2000
    0.1310   -1.3390   -0.9050 C   0  0  0  0  0  0  0  0  0  0  0  0
    0.5720   -0.1260   -0.3970 C   0  0  0  0  0  0  0  0  0  0  0  0
    0.8310   -2.2020   -1.6950 N   0  0  0  0  0  0  0  0  0  0  0  0
    1.9290    0.3020   -0.7160 C   0  0  0  0  0  0  0  0  0  0  0  0
    2.6010   -0.6130   -1.5240 N   0  0  0  0  0  0  0  0  0  0  0  0
    2.0320   -1.7970   -1.9670 C   0  0  0  0  0  0  0  0  0  0  0  0
   -1.4690   -1.6850   -0.4190 S   0  0  0  0  0  0  0  0  0  0  0  0
   -0.4260    0.5280    0.3920 C   0  0  0  0  0  0  0  0  0  0  0  0
   -1.5770   -0.2350    0.4640 C   0  0  0  0  0  0  0  0  0  0  0  0
    2.8780   -2.7010   -2.8540 C   0  0  0  0  0  0  0  0  0  0  0  0
    2.4240    1.3490   -0.3130 O   0  0  0  0  0  0  0  0  0  0  0  0
    4.2640   -2.5470   -2.9500 C   0  0  0  0  0  0  0  0  0  0  0  0
    5.0100   -3.3970   -3.7730 C   0  0  0  0  0  0  0  0  0  0  0  0
   -0.3040    1.8420    1.1060 C   0  0  0  0  0  0  0  0  0  0  0  0
    6.6990   -3.2110   -3.8960 Cl  0  0  0  0  0  0  0  0  0  0  0  0
   -2.8230    0.1500    1.2000 C   0  0  0  0  0  0  0  0  0  0  0  0
    2.2470   -3.7200   -3.5810 C   0  0  0  0  0  0  0  0  0  0  0  0
    2.9940   -4.5680   -4.4020 C   0  0  0  0  0  0  0  0  0  0  0  0
    4.3770   -4.4060   -4.4990 C   0  0  0  0  0  0  0  0  0  0  0  0
   -1.6690    2.3830    1.5590 C   0  0  0  0  0  0  0  0  0  0  0  0
   -2.5340    1.2850    2.1930 C   0  0  0  0  0  0  0  0  0  0  0  0
    3.5490   -0.4030   -1.8010 H   0  0  0  0  0  0  0  0  0  0  0  0
    4.7600   -1.7700   -2.3870 H   0  0  0  0  0  0  0  0  0  0  0  0
    0.1550    2.5660    0.4330 H   0  0  0  0  0  0  0  0  0  0  0  0
    0.3290    1.7080    1.9830 H   0  0  0  0  0  0  0  0  0  0  0  0
   -3.1990   -0.7160    1.7450 H   0  0  0  0  0  0  0  0  0  0  0  0
   -3.5740    0.4830    0.4840 H   0  0  0  0  0  0  0  0  0  0  0  0
    1.1770   -3.8500   -3.5060 H   0  0  0  0  0  0  0  0  0  0  0  0
    2.5010   -5.3490   -4.9620 H   0  0  0  0  0  0  0  0  0  0  0  0
    4.9550   -5.0600   -5.1340 H   0  0  0  0  0  0  0  0  0  0  0  0
   -2.1930    2.7890    0.6940 H   0  0  0  0  0  0  0  0  0  0  0  0
   -1.5100    3.1740    2.2920 H   0  0  0  0  0  0  0  0  0  0  0  0
   -2.0090    0.8750    3.0560 H   0  0  0  0  0  0  0  0  0  0  0  0
   -3.4790    1.7220    2.5160 H   0  0  0  0  0  0  0  0  0  0  0  0
  1  2  2  0  0  0  0
  1  3  1  0  0  0  0
  1  7  1  0  0  0  0
  2  4  1  0  0  0  0
  2  8  1  0  0  0  0
  3  6  2  0  0  0  0
  4  5  1  0  0  0  0
  4 11  2  0  0  0  0
  5  6  1  0  0  0  0
  5 22  1  0  0  0  0
  6 10  1  0  0  0  0
  7  9  1  0  0  0  0
  8  9  2  0  0  0  0
  8 14  1  0  0  0  0
  9 16  1  0  0  0  0
 10 12  2  0  0  0  0
 10 17  1  0  0  0  0
 12 13  1  0  0  0  0
 12 23  1  0  0  0  0
 13 15  1  0  0  0  0
 13 19  2  0  0  0  0
 14 20  1  0  0  0  0
 14 24  1  0  0  0  0
 14 25  1  0  0  0  0
 16 21  1  0  0  0  0
 16 26  1  0  0  0  0
 16 27  1  0  0  0  0
 17 18  2  0  0  0  0
 17 28  1  0  0  0  0
 18 19  1  0  0  0  0
 18 29  1  0  0  0  0
 19 30  1  0  0  0  0
 20 21  1  0  0  0  0
 20 31  1  0  0  0  0
 20 32  1  0  0  0  0
 21 33  1  0  0  0  0
 21 34  1  0  0  0  0
M  END
>  <$CLUSTER>
544

>  <INDEX>
63354

$$$$
InterBioScreen STOCK4S-69546
  MOE2020           3D

 38 38  0  0  1  0  0  0  0  0999 V2000
    1.1560   -0.1910    0.5090 C   0  0  0  0  0  0  0  0  0  0  0  0
    0.0560   -0.5160   -0.2710 N   0  0  0  0  0  0  0  0  0  0  0  0
   -1.2260    0.1740   -0.1710 C   0  0  2  0  0  0  0  0  0  0  0  0
   -2.3660   -0.7800   -0.5110 C   0  0  0  0  0  0  0  0  0  0  0  0
    2.2460   -0.9890    0.2240 N   0  0  0  0  0  0  0  0  0  0  0  0
    5.7660   -2.0070    0.7780 C   0  0  0  0  0  0  0  0  0  0  0  0
    4.4640   -1.9460    0.2760 C   0  0  0  0  0  0  0  0  0  0  0  0
    3.5480   -1.0050    0.7690 C   0  0  0  0  0  0  0  0  0  0  0  0
    1.1840    0.6970    1.3570 O   0  0  0  0  0  0  0  0  0  0  0  0
    6.1670   -1.1270    1.7800 C   0  0  0  0  0  0  0  0  0  0  0  0
   -2.8940   -0.7910   -1.6770 O   0  0  0  0  0  0  0  0  0  0  0  0
    5.2650   -0.1890    2.2760 C   0  0  0  0  0  0  0  0  0  0  0  0
   -1.2410    1.3940   -1.0870 C   0  0  3  0  0  0  0  0  0  0  0  0
    6.8490   -3.1630    0.1550 Cl  0  0  0  0  0  0  0  0  0  0  0  0
   -2.7790   -1.5580    0.4570 O   0  5  0  0  0  0  0  0  0  0  0  0
    3.9610   -0.1260    1.7750 C   0  0  0  0  0  0  0  0  0  0  0  0
    7.5570   -1.1880    2.3220 C   0  0  0  0  0  0  0  0  0  0  0  0
   -0.2410    2.4930   -0.6380 C   0  0  0  0  0  0  0  0  0  0  0  0
   -1.0340    1.1260   -2.5820 C   0  0  0  0  0  0  0  0  0  0  0  0
   -0.3190    3.8190   -1.3210 C   0  0  0  0  0  0  0  0  0  0  0  0
    0.1470   -1.2670   -0.9410 H   0  0  0  0  0  0  0  0  0  0  0  0
   -1.3650    0.5170    0.8540 H   0  0  0  0  0  0  0  0  0  0  0  0
    2.0840   -1.6780   -0.4970 H   0  0  0  0  0  0  0  0  0  0  0  0
    4.1590   -2.6310   -0.5010 H   0  0  0  0  0  0  0  0  0  0  0  0
    5.5750    0.4940    3.0530 H   0  0  0  0  0  0  0  0  0  0  0  0
   -2.2680    1.7410   -0.9760 H   0  0  0  0  0  0  0  0  0  0  0  0
    3.2690    0.6050    2.1670 H   0  0  0  0  0  0  0  0  0  0  0  0
    7.6800   -0.4270    3.0920 H   0  0  0  0  0  0  0  0  0  0  0  0
    8.2690   -1.0090    1.5170 H   0  0  0  0  0  0  0  0  0  0  0  0
    7.7360   -2.1730    2.7530 H   0  0  0  0  0  0  0  0  0  0  0  0
   -0.4010    2.6640    0.4260 H   0  0  0  0  0  0  0  0  0  0  0  0
    0.7650    2.1030   -0.7960 H   0  0  0  0  0  0  0  0  0  0  0  0
   -0.0160    0.7740   -2.7510 H   0  0  0  0  0  0  0  0  0  0  0  0
   -1.1980    2.0470   -3.1420 H   0  0  0  0  0  0  0  0  0  0  0  0
   -1.7410    0.3660   -2.9160 H   0  0  0  0  0  0  0  0  0  0  0  0
   -1.3150    4.2400   -1.1840 H   0  0  0  0  0  0  0  0  0  0  0  0
   -0.1220    3.6920   -2.3850 H   0  0  0  0  0  0  0  0  0  0  0  0
    0.4230    4.4930   -0.8920 H   0  0  0  0  0  0  0  0  0  0  0  0
  1  2  1  0  0  0  0
  1  5  1  0  0  0  0
  1  9  2  0  0  0  0
  2  3  1  0  0  0  0
  2 21  1  0  0  0  0
  3  4  1  0  0  0  0
  3 13  1  0  0  0  0
  3 22  1  0  0  0  0
  4 11  2  0  0  0  0
  4 15  1  0  0  0  0
  5  8  1  0  0  0  0
  5 23  1  0  0  0  0
  6  7  1  0  0  0  0
  6 10  2  0  0  0  0
  6 14  1  0  0  0  0
  7  8  2  0  0  0  0
  7 24  1  0  0  0  0
  8 16  1  0  0  0  0
 10 12  1  0  0  0  0
 10 17  1  0  0  0  0
 12 16  2  0  0  0  0
 12 25  1  0  0  0  0
 13 18  1  0  0  0  0
 13 19  1  0  0  0  0
 13 26  1  0  0  0  0
 16 27  1  0  0  0  0
 17 28  1  0  0  0  0
 17 29  1  0  0  0  0
 17 30  1  0  0  0  0
 18 20  1  0  0  0  0
 18 31  1  0  0  0  0
 18 32  1  0  0  0  0
 19 33  1  0  0  0  0
 19 34  1  0  0  0  0
 19 35  1  0  0  0  0
 20 36  1  0  0  0  0
 20 37  1  0  0  0  0
 20 38  1  0  0  0  0
M  CHG  1  15  -1
M  END
>  <$CLUSTER>
545

>  <INDEX>
359455

$$$$
Enamine T0502-3606
  MOE2020           3D

 47 50  0  0  0  0  0  0  0  0999 V2000
   -0.7840    1.0390   -0.4100 N   0  0  0  0  0  0  0  0  0  0  0  0
   -0.4450    0.0530   -1.3130 C   0  0  0  0  0  0  0  0  0  0  0  0
    0.2310   -0.9560   -0.6350 C   0  0  0  0  0  0  0  0  0  0  0  0
   -0.3240    0.6900    0.8350 C   0  0  0  0  0  0  0  0  0  0  0  0
    0.3050   -0.5430    0.7260 C   0  0  0  0  0  0  0  0  0  0  0  0
   -0.4500    1.4040    1.9730 N   0  0  0  0  0  0  0  0  0  0  0  0
    0.8620   -1.1470    1.8100 N   0  0  0  0  0  0  0  0  0  0  0  0
    0.7460   -2.1700   -1.2460 C   0  0  0  0  0  0  0  0  0  0  0  0
   -1.5150    2.2650   -0.6950 C   0  0  0  0  0  0  0  0  0  0  0  0
    0.1100    0.7830    3.0300 C   0  0  0  0  0  0  0  0  0  0  0  0
    0.7400   -0.4430    2.9520 C   0  0  0  0  0  0  0  0  0  0  0  0
   -0.7630    0.1580   -2.6190 N   0  0  0  0  0  0  0  0  0  0  0  0
    0.6400   -2.4470   -2.4340 O   0  0  0  0  0  0  0  0  0  0  0  0
   -0.6030    3.3810   -1.1740 C   0  0  0  0  0  0  0  0  0  0  0  0
   -1.3600    4.6570   -1.4590 C   0  0  0  0  0  0  0  0  0  0  0  0
   -1.9550    4.8720   -2.7050 C   0  0  0  0  0  0  0  0  0  0  0  0
    1.3710   -2.9940   -0.3640 O   0  0  0  0  0  0  0  0  0  0  0  0
   -1.8370    3.9480   -3.6700 F   0  0  0  0  0  0  0  0  0  0  0  0
    0.0370    1.4460    4.2950 C   0  0  0  0  0  0  0  0  0  0  0  0
    1.3040   -1.0150    4.1390 C   0  0  0  0  0  0  0  0  0  0  0  0
   -1.5140    5.6350   -0.4660 C   0  0  0  0  0  0  0  0  0  0  0  0
   -2.6720    6.0340   -2.9750 C   0  0  0  0  0  0  0  0  0  0  0  0
    1.9190   -4.2100   -0.8300 C   0  0  0  0  0  0  0  0  0  0  0  0
    2.5530   -4.9450    0.3330 C   0  0  0  0  0  0  0  0  0  0  0  0
    1.2240   -0.3550    5.3660 C   0  0  0  0  0  0  0  0  0  0  0  0
    0.5890    0.8790    5.4430 C   0  0  0  0  0  0  0  0  0  0  0  0
   -2.8110    7.0040   -1.9860 C   0  0  0  0  0  0  0  0  0  0  0  0
   -2.2330    6.8030   -0.7310 C   0  0  0  0  0  0  0  0  0  0  0  0
   -2.0210    2.5910    0.2140 H   0  0  0  0  0  0  0  0  0  0  0  0
   -2.2550    2.0600   -1.4690 H   0  0  0  0  0  0  0  0  0  0  0  0
   -0.5000   -0.5740   -3.2630 H   0  0  0  0  0  0  0  0  0  0  0  0
   -1.2640    0.9690   -2.9530 H   0  0  0  0  0  0  0  0  0  0  0  0
   -0.1040    3.0580   -2.0880 H   0  0  0  0  0  0  0  0  0  0  0  0
    0.1420    3.5800   -0.4040 H   0  0  0  0  0  0  0  0  0  0  0  0
   -0.4550    2.4050    4.3620 H   0  0  0  0  0  0  0  0  0  0  0  0
    1.7990   -1.9730    4.0830 H   0  0  0  0  0  0  0  0  0  0  0  0
   -1.0740    5.4840    0.5090 H   0  0  0  0  0  0  0  0  0  0  0  0
   -3.1180    6.1830   -3.9470 H   0  0  0  0  0  0  0  0  0  0  0  0
    2.6750   -4.0030   -1.5870 H   0  0  0  0  0  0  0  0  0  0  0  0
    1.1290   -4.8240   -1.2630 H   0  0  0  0  0  0  0  0  0  0  0  0
    3.3420   -4.3300    0.7650 H   0  0  0  0  0  0  0  0  0  0  0  0
    2.9770   -5.8850   -0.0190 H   0  0  0  0  0  0  0  0  0  0  0  0
    1.7960   -5.1490    1.0900 H   0  0  0  0  0  0  0  0  0  0  0  0
    1.6530   -0.8010    6.2510 H   0  0  0  0  0  0  0  0  0  0  0  0
    0.5230    1.3970    6.3890 H   0  0  0  0  0  0  0  0  0  0  0  0
   -3.3640    7.9090   -2.1890 H   0  0  0  0  0  0  0  0  0  0  0  0
   -2.3420    7.5540    0.0380 H   0  0  0  0  0  0  0  0  0  0  0  0
  1  2  1  0  0  0  0
  1  4  1  0  0  0  0
  1  9  1  0  0  0  0
  2  3  2  0  0  0  0
  2 12  1  0  0  0  0
  3  5  1  0  0  0  0
  3  8  1  0  0  0  0
  4  5  2  0  0  0  0
  4  6  1  0  0  0  0
  5  7  1  0  0  0  0
  6 10  2  0  0  0  0
  7 11  2  0  0  0  0
  8 13  2  0  0  0  0
  8 17  1  0  0  0  0
  9 14  1  0  0  0  0
  9 29  1  0  0  0  0
  9 30  1  0  0  0  0
 10 11  1  0  0  0  0
 10 19  1  0  0  0  0
 11 20  1  0  0  0  0
 12 31  1  0  0  0  0
 12 32  1  0  0  0  0
 14 15  1  0  0  0  0
 14 33  1  0  0  0  0
 14 34  1  0  0  0  0
 15 16  2  0  0  0  0
 15 21  1  0  0  0  0
 16 18  1  0  0  0  0
 16 22  1  0  0  0  0
 17 23  1  0  0  0  0
 19 26  2  0  0  0  0
 19 35  1  0  0  0  0
 20 25  2  0  0  0  0
 20 36  1  0  0  0  0
 21 28  2  0  0  0  0
 21 37  1  0  0  0  0
 22 27  2  0  0  0  0
 22 38  1  0  0  0  0
 23 24  1  0  0  0  0
 23 39  1  0  0  0  0
 23 40  1  0  0  0  0
 24 41  1  0  0  0  0
 24 42  1  0  0  0  0
 24 43  1  0  0  0  0
 25 26  1  0  0  0  0
 25 44  1  0  0  0  0
 26 45  1  0  0  0  0
 27 28  1  0  0  0  0
 27 46  1  0  0  0  0
 28 47  1  0  0  0  0
M  END
>  <$CLUSTER>
546

>  <INDEX>
406822

$$$$
InterBioScreen STOCK4S-36104
  MOE2020           3D

 47 49  0  0  0  0  0  0  0  0999 V2000
   -1.8820   -1.8890    1.0830 C   0  0  0  0  0  0  0  0  0  0  0  0
   -2.1740   -3.2740    3.0500 N   0  0  0  0  0  0  0  0  0  0  0  0
    0.4990   -0.6360   -0.8140 C   0  0  0  0  0  0  0  0  0  0  0  0
   -1.9490   -2.0820    2.4540 C   0  0  0  0  0  0  0  0  0  0  0  0
   -0.1690   -0.2630    0.3560 N   0  0  0  0  0  0  0  0  0  0  0  0
   -1.6070   -0.5280    0.4630 C   0  0  0  0  0  0  0  0  0  0  0  0
    1.9740   -0.3260   -0.8850 C   0  0  0  0  0  0  0  0  0  0  0  0
   -2.0380   -3.0110    0.2730 C   0  0  0  0  0  0  0  0  0  0  0  0
   -2.3300   -4.3340    2.2290 C   0  0  0  0  0  0  0  0  0  0  0  0
   -2.2710   -4.2570    0.8480 C   0  0  0  0  0  0  0  0  0  0  0  0
   -0.0460   -1.2030   -1.7650 O   0  0  0  0  0  0  0  0  0  0  0  0
    2.7390   -0.2020    0.2700 C   0  0  0  0  0  0  0  0  0  0  0  0
   -1.7790   -1.0190    3.3050 O   0  0  0  0  0  0  0  0  0  0  0  0
    4.1010    0.0860    0.1550 C   0  0  0  0  0  0  0  0  0  0  0  0
    0.4730    0.3810    1.5100 C   0  0  0  0  0  0  0  0  0  0  0  0
    2.5410   -0.1760   -2.1400 C   0  0  0  0  0  0  0  0  0  0  0  0
    3.9020    0.1130   -2.2490 C   0  0  0  0  0  0  0  0  0  0  0  0
   -2.5620   -5.6070    2.8110 C   0  0  0  0  0  0  0  0  0  0  0  0
   -2.4420   -5.4040    0.0400 C   0  0  0  0  0  0  0  0  0  0  0  0
    4.6820    0.2460   -1.1020 C   0  0  0  0  0  0  0  0  0  0  0  0
    4.9410    0.2230    1.3850 C   0  0  0  0  0  0  0  0  0  0  0  0
    0.3430    1.8960    1.4590 C   0  0  0  0  0  0  0  0  0  0  0  0
    1.0120    2.5600    2.6390 C   0  0  0  0  0  0  0  0  0  0  0  0
   -2.7310   -6.7460    2.0200 C   0  0  0  0  0  0  0  0  0  0  0  0
   -2.6710   -6.6440    0.6340 C   0  0  0  0  0  0  0  0  0  0  0  0
   -2.0630    0.2420    1.0850 H   0  0  0  0  0  0  0  0  0  0  0  0
   -2.0470   -0.4980   -0.5340 H   0  0  0  0  0  0  0  0  0  0  0  0
   -1.9780   -2.9140   -0.8010 H   0  0  0  0  0  0  0  0  0  0  0  0
    2.2860   -0.3270    1.2420 H   0  0  0  0  0  0  0  0  0  0  0  0
   -1.8380   -1.2330    4.2390 H   0  0  0  0  0  0  0  0  0  0  0  0
    1.5310    0.1180    1.5170 H   0  0  0  0  0  0  0  0  0  0  0  0
    0.0020    0.0170    2.4230 H   0  0  0  0  0  0  0  0  0  0  0  0
    1.9340   -0.2820   -3.0270 H   0  0  0  0  0  0  0  0  0  0  0  0
    4.3510    0.2340   -3.2240 H   0  0  0  0  0  0  0  0  0  0  0  0
   -2.6090   -5.6970    3.8860 H   0  0  0  0  0  0  0  0  0  0  0  0
   -2.3950   -5.3200   -1.0360 H   0  0  0  0  0  0  0  0  0  0  0  0
    5.7350    0.4730   -1.1870 H   0  0  0  0  0  0  0  0  0  0  0  0
    4.3210    0.0660    2.2680 H   0  0  0  0  0  0  0  0  0  0  0  0
    5.3760    1.2220    1.4190 H   0  0  0  0  0  0  0  0  0  0  0  0
    5.7390   -0.5200    1.3650 H   0  0  0  0  0  0  0  0  0  0  0  0
   -0.7150    2.1590    1.4600 H   0  0  0  0  0  0  0  0  0  0  0  0
    0.8070    2.2590    0.5410 H   0  0  0  0  0  0  0  0  0  0  0  0
    0.5560    2.2040    3.5630 H   0  0  0  0  0  0  0  0  0  0  0  0
    0.8890    3.6410    2.5660 H   0  0  0  0  0  0  0  0  0  0  0  0
    2.0740    2.3140    2.6400 H   0  0  0  0  0  0  0  0  0  0  0  0
   -2.9080   -7.7050    2.4840 H   0  0  0  0  0  0  0  0  0  0  0  0
   -2.8010   -7.5230    0.0200 H   0  0  0  0  0  0  0  0  0  0  0  0
  1  4  2  0  0  0  0
  1  6  1  0  0  0  0
  1  8  1  0  0  0  0
  2  4  1  0  0  0  0
  2  9  2  0  0  0  0
  3  5  1  0  0  0  0
  3  7  1  0  0  0  0
  3 11  2  0  0  0  0
  4 13  1  0  0  0  0
  5  6  1  0  0  0  0
  5 15  1  0  0  0  0
  6 26  1  0  0  0  0
  6 27  1  0  0  0  0
  7 12  2  0  0  0  0
  7 16  1  0  0  0  0
  8 10  2  0  0  0  0
  8 28  1  0  0  0  0
  9 10  1  0  0  0  0
  9 18  1  0  0  0  0
 10 19  1  0  0  0  0
 12 14  1  0  0  0  0
 12 29  1  0  0  0  0
 13 30  1  0  0  0  0
 14 20  2  0  0  0  0
 14 21  1  0  0  0  0
 15 22  1  0  0  0  0
 15 31  1  0  0  0  0
 15 32  1  0  0  0  0
 16 17  2  0  0  0  0
 16 33  1  0  0  0  0
 17 20  1  0  0  0  0
 17 34  1  0  0  0  0
 18 24  2  0  0  0  0
 18 35  1  0  0  0  0
 19 25  2  0  0  0  0
 19 36  1  0  0  0  0
 20 37  1  0  0  0  0
 21 38  1  0  0  0  0
 21 39  1  0  0  0  0
 21 40  1  0  0  0  0
 22 23  1  0  0  0  0
 22 41  1  0  0  0  0
 22 42  1  0  0  0  0
 23 43  1  0  0  0  0
 23 44  1  0  0  0  0
 23 45  1  0  0  0  0
 24 25  1  0  0  0  0
 24 46  1  0  0  0  0
 25 47  1  0  0  0  0
M  END
>  <$CLUSTER>
547

>  <INDEX>
354294

$$$$
InterBioScreen STOCK4S-70003
  MOE2020           3D

 50 54  0  0  0  0  0  0  0  0999 V2000
   -1.2440   -0.9640   -0.0120 C   0  0  0  0  0  0  0  0  0  0  0  0
   -2.0480   -0.9100   -1.1390 C   0  0  0  0  0  0  0  0  0  0  0  0
   -0.2200   -0.0260   -0.1440 N   0  0  0  0  0  0  0  0  0  0  0  0
   -0.4080    0.6140   -1.3700 C   0  0  0  0  0  0  0  0  0  0  0  0
   -1.5300    0.0730   -1.9920 C   0  0  0  0  0  0  0  0  0  0  0  0
   -1.4440   -1.7520    1.0820 N   0  0  0  0  0  0  0  0  0  0  0  0
   -3.1970   -1.7830   -1.2410 C   0  0  0  0  0  0  0  0  0  0  0  0
    0.3740    1.5650   -1.9260 N   0  0  0  0  0  0  0  0  0  0  0  0
   -1.9520    0.4940   -3.2120 N   0  0  0  0  0  0  0  0  0  0  0  0
   -3.3460   -2.5800   -0.1070 N   0  0  0  0  0  0  0  0  0  0  0  0
    0.8310    0.2370    0.7920 C   0  0  0  0  0  0  0  0  0  0  0  0
   -2.4820   -2.5240    0.9800 C   0  0  0  0  0  0  0  0  0  0  0  0
    1.4140    1.5100    0.8690 C   0  0  0  0  0  0  0  0  0  0  0  0
   -0.0610    1.9670   -3.1350 C   0  0  0  0  0  0  0  0  0  0  0  0
   -1.1820    1.4540   -3.7540 C   0  0  0  0  0  0  0  0  0  0  0  0
    2.4400    1.7660    1.7840 C   0  0  0  0  0  0  0  0  0  0  0  0
   -3.9460   -1.8100   -2.2110 O   0  0  0  0  0  0  0  0  0  0  0  0
    1.2980   -0.7720    1.6460 C   0  0  0  0  0  0  0  0  0  0  0  0
    2.8960    0.7580    2.6270 C   0  0  0  0  0  0  0  0  0  0  0  0
    2.3260   -0.5100    2.5570 C   0  0  0  0  0  0  0  0  0  0  0  0
   -4.4890   -3.5390   -0.0460 C   0  0  0  0  0  0  0  0  0  0  0  0
    3.0500    3.1300    1.8550 C   0  0  0  0  0  0  0  0  0  0  0  0
   -1.5540    1.9450   -5.0450 C   0  0  0  0  0  0  0  0  0  0  0  0
    0.6950    2.9860   -3.8000 C   0  0  0  0  0  0  0  0  0  0  0  0
    3.9910    1.0370    3.6020 C   0  0  0  0  0  0  0  0  0  0  0  0
   -5.7250   -2.8970    0.5710 C   0  0  0  0  0  0  0  0  0  0  0  0
   -6.8750   -3.8690    0.6420 C   0  0  0  0  0  0  0  0  0  0  0  0
   -0.8080    2.9380   -5.6820 C   0  0  0  0  0  0  0  0  0  0  0  0
    0.3190    3.4590   -5.0560 C   0  0  0  0  0  0  0  0  0  0  0  0
   -2.6930   -3.1800    1.8120 H   0  0  0  0  0  0  0  0  0  0  0  0
    1.0680    2.2980    0.2170 H   0  0  0  0  0  0  0  0  0  0  0  0
    0.8610   -1.7580    1.6000 H   0  0  0  0  0  0  0  0  0  0  0  0
    2.6790   -1.2950    3.2090 H   0  0  0  0  0  0  0  0  0  0  0  0
   -4.1980   -4.3990    0.5570 H   0  0  0  0  0  0  0  0  0  0  0  0
   -4.7290   -3.8690   -1.0570 H   0  0  0  0  0  0  0  0  0  0  0  0
    2.5690    3.7820    1.1260 H   0  0  0  0  0  0  0  0  0  0  0  0
    4.1160    3.0630    1.6350 H   0  0  0  0  0  0  0  0  0  0  0  0
    2.9100    3.5390    2.8560 H   0  0  0  0  0  0  0  0  0  0  0  0
   -2.4270    1.5400   -5.5350 H   0  0  0  0  0  0  0  0  0  0  0  0
    1.5720    3.3950   -3.3200 H   0  0  0  0  0  0  0  0  0  0  0  0
    4.3050    2.0760    3.5080 H   0  0  0  0  0  0  0  0  0  0  0  0
    4.8370    0.3820    3.3960 H   0  0  0  0  0  0  0  0  0  0  0  0
    3.6300    0.8570    4.6150 H   0  0  0  0  0  0  0  0  0  0  0  0
   -6.0210   -2.0420   -0.0370 H   0  0  0  0  0  0  0  0  0  0  0  0
   -5.4830   -2.5600    1.5790 H   0  0  0  0  0  0  0  0  0  0  0  0
   -7.1240   -4.2120   -0.3620 H   0  0  0  0  0  0  0  0  0  0  0  0
   -7.7410   -3.3750    1.0820 H   0  0  0  0  0  0  0  0  0  0  0  0
   -6.5920   -4.7230    1.2570 H   0  0  0  0  0  0  0  0  0  0  0  0
   -1.1040    3.3000   -6.6560 H   0  0  0  0  0  0  0  0  0  0  0  0
    0.9010    4.2280   -5.5420 H   0  0  0  0  0  0  0  0  0  0  0  0
  1  2  2  0  0  0  0
  1  3  1  0  0  0  0
  1  6  1  0  0  0  0
  2  5  1  0  0  0  0
  2  7  1  0  0  0  0
  3  4  1  0  0  0  0
  3 11  1  0  0  0  0
  4  5  2  0  0  0  0
  4  8  1  0  0  0  0
  5  9  1  0  0  0  0
  6 12  2  0  0  0  0
  7 10  1  0  0  0  0
  7 17  2  0  0  0  0
  8 14  2  0  0  0  0
  9 15  2  0  0  0  0
 10 12  1  0  0  0  0
 10 21  1  0  0  0  0
 11 13  2  0  0  0  0
 11 18  1  0  0  0  0
 12 30  1  0  0  0  0
 13 16  1  0  0  0  0
 13 31  1  0  0  0  0
 14 15  1  0  0  0  0
 14 24  1  0  0  0  0
 15 23  1  0  0  0  0
 16 19  2  0  0  0  0
 16 22  1  0  0  0  0
 18 20  2  0  0  0  0
 18 32  1  0  0  0  0
 19 20  1  0  0  0  0
 19 25  1  0  0  0  0
 20 33  1  0  0  0  0
 21 26  1  0  0  0  0
 21 34  1  0  0  0  0
 21 35  1  0  0  0  0
 22 36  1  0  0  0  0
 22 37  1  0  0  0  0
 22 38  1  0  0  0  0
 23 28  2  0  0  0  0
 23 39  1  0  0  0  0
 24 29  2  0  0  0  0
 24 40  1  0  0  0  0
 25 41  1  0  0  0  0
 25 42  1  0  0  0  0
 25 43  1  0  0  0  0
 26 27  1  0  0  0  0
 26 44  1  0  0  0  0
 26 45  1  0  0  0  0
 27 46  1  0  0  0  0
 27 47  1  0  0  0  0
 27 48  1  0  0  0  0
 28 29  1  0  0  0  0
 28 49  1  0  0  0  0
 29 50  1  0  0  0  0
M  END
>  <$CLUSTER>
548

>  <INDEX>
359536

$$$$
InterBioScreen STOCK4S-59553
  MOE2020           3D

 52 54  0  0  1  0  0  0  0  0999 V2000
    0.8380    0.5760    0.0080 C   0  0  0  0  0  0  0  0  0  0  0  0
   -0.4460    0.5930    0.6730 C   0  0  0  0  0  0  0  0  0  0  0  0
    0.8960   -0.5170   -0.8490 C   0  0  0  0  0  0  0  0  0  0  0  0
    1.9090   -0.8680   -1.6580 N   0  0  0  0  0  0  0  0  0  0  0  0
    3.0340    1.0710   -0.7730 N   0  0  0  0  0  0  0  0  0  0  0  0
    1.9930    1.4050    0.0500 C   0  0  0  0  0  0  0  0  0  0  0  0
    2.9350   -0.0160   -1.5590 C   0  0  0  0  0  0  0  0  0  0  0  0
   -1.2290   -0.4910    0.3230 C   0  0  0  0  0  0  0  0  0  0  0  0
   -0.4910   -1.4940   -0.8290 S   0  0  0  0  0  0  0  0  0  0  0  0
   -0.9650    1.5880    1.6680 C   0  0  0  0  0  0  0  0  0  0  0  0
   -2.8320    0.0360    2.0110 O   0  0  0  0  0  0  0  0  0  0  0  0
    4.3440   -0.4240   -2.6170 S   0  0  0  0  0  0  0  0  0  0  0  0
   -2.4920    1.4330    1.8960 C   0  0  3  0  0  0  0  0  0  0  0  0
   -2.5980   -0.7640    0.8420 C   0  0  0  0  0  0  0  0  0  0  0  0
    2.0900    2.5020    0.8900 N   0  0  0  0  0  0  0  0  0  0  0  0
    3.1050    4.4760    1.8830 C   0  0  0  0  0  0  0  0  0  0  0  0
    5.4970    0.9140   -2.2040 C   0  0  0  0  0  0  0  0  0  0  0  0
    4.1120    6.4270    2.8440 O   0  0  0  0  0  0  0  0  0  0  0  0
    3.2700    3.3430    0.8830 C   0  0  0  0  0  0  0  0  0  0  0  0
   -3.3130    2.1200    0.7920 C   0  0  0  0  0  0  0  0  0  0  0  0
   -2.8660    2.0680    3.2430 C   0  0  0  0  0  0  0  0  0  0  0  0
    4.3310    5.3920    1.8940 C   0  0  0  0  0  0  0  0  0  0  0  0
    4.9650    2.2990   -2.5890 C   0  0  0  0  0  0  0  0  0  0  0  0
    5.9450    0.8830   -0.7390 C   0  0  0  0  0  0  0  0  0  0  0  0
   -3.0910    1.4970   -0.5980 C   0  0  0  0  0  0  0  0  0  0  0  0
   -0.7640    2.5940    1.2990 H   0  0  0  0  0  0  0  0  0  0  0  0
   -0.4500    1.4390    2.6170 H   0  0  0  0  0  0  0  0  0  0  0  0
   -2.6860   -1.8190    1.1000 H   0  0  0  0  0  0  0  0  0  0  0  0
   -3.3340   -0.5150    0.0770 H   0  0  0  0  0  0  0  0  0  0  0  0
    1.3280    2.7190    1.5160 H   0  0  0  0  0  0  0  0  0  0  0  0
    2.9690    4.0540    2.8790 H   0  0  0  0  0  0  0  0  0  0  0  0
    2.2260    5.0620    1.6130 H   0  0  0  0  0  0  0  0  0  0  0  0
    6.3800    0.7280   -2.8150 H   0  0  0  0  0  0  0  0  0  0  0  0
    4.8870    6.9930    2.8400 H   0  0  0  0  0  0  0  0  0  0  0  0
    3.4110    3.7590   -0.1140 H   0  0  0  0  0  0  0  0  0  0  0  0
    4.1410    2.7460    1.1540 H   0  0  0  0  0  0  0  0  0  0  0  0
   -3.0290    3.1710    0.7510 H   0  0  0  0  0  0  0  0  0  0  0  0
   -4.3700    2.0390    1.0440 H   0  0  0  0  0  0  0  0  0  0  0  0
   -2.2930    1.5930    4.0400 H   0  0  0  0  0  0  0  0  0  0  0  0
   -3.9310    1.9270    3.4280 H   0  0  0  0  0  0  0  0  0  0  0  0
   -2.6390    3.1340    3.2180 H   0  0  0  0  0  0  0  0  0  0  0  0
    4.4750    5.8260    0.9040 H   0  0  0  0  0  0  0  0  0  0  0  0
    5.2160    4.8190    2.1720 H   0  0  0  0  0  0  0  0  0  0  0  0
    4.0770    2.5240   -1.9980 H   0  0  0  0  0  0  0  0  0  0  0  0
    4.7080    2.3080   -3.6480 H   0  0  0  0  0  0  0  0  0  0  0  0
    5.7310    3.0490   -2.3950 H   0  0  0  0  0  0  0  0  0  0  0  0
    5.0870    1.0660   -0.0930 H   0  0  0  0  0  0  0  0  0  0  0  0
    6.6960    1.6550   -0.5720 H   0  0  0  0  0  0  0  0  0  0  0  0
    6.3710   -0.0940   -0.5100 H   0  0  0  0  0  0  0  0  0  0  0  0
   -2.0370    1.5700   -0.8650 H   0  0  0  0  0  0  0  0  0  0  0  0
   -3.6900    2.0310   -1.3350 H   0  0  0  0  0  0  0  0  0  0  0  0
   -3.3890    0.4490   -0.5780 H   0  0  0  0  0  0  0  0  0  0  0  0
  1  2  1  0  0  0  0
  1  3  2  0  0  0  0
  1  6  1  0  0  0  0
  2  8  2  0  0  0  0
  2 10  1  0  0  0  0
  3  4  1  0  0  0  0
  3  9  1  0  0  0  0
  4  7  2  0  0  0  0
  5  6  2  0  0  0  0
  5  7  1  0  0  0  0
  6 15  1  0  0  0  0
  7 12  1  0  0  0  0
  8  9  1  0  0  0  0
  8 14  1  0  0  0  0
 10 13  1  0  0  0  0
 10 26  1  0  0  0  0
 10 27  1  0  0  0  0
 11 13  1  0  0  0  0
 11 14  1  0  0  0  0
 12 17  1  0  0  0  0
 13 20  1  0  0  0  0
 13 21  1  0  0  0  0
 14 28  1  0  0  0  0
 14 29  1  0  0  0  0
 15 19  1  0  0  0  0
 15 30  1  0  0  0  0
 16 19  1  0  0  0  0
 16 22  1  0  0  0  0
 16 31  1  0  0  0  0
 16 32  1  0  0  0  0
 17 23  1  0  0  0  0
 17 24  1  0  0  0  0
 17 33  1  0  0  0  0
 18 22  1  0  0  0  0
 18 34  1  0  0  0  0
 19 35  1  0  0  0  0
 19 36  1  0  0  0  0
 20 25  1  0  0  0  0
 20 37  1  0  0  0  0
 20 38  1  0  0  0  0
 21 39  1  0  0  0  0
 21 40  1  0  0  0  0
 21 41  1  0  0  0  0
 22 42  1  0  0  0  0
 22 43  1  0  0  0  0
 23 44  1  0  0  0  0
 23 45  1  0  0  0  0
 23 46  1  0  0  0  0
 24 47  1  0  0  0  0
 24 48  1  0  0  0  0
 24 49  1  0  0  0  0
 25 50  1  0  0  0  0
 25 51  1  0  0  0  0
 25 52  1  0  0  0  0
M  END
>  <$CLUSTER>
549

>  <INDEX>
357893

$$$$
Life Chemicals F0600-0351
  MOE2020           3D

 50 53  0  0  1  0  0  0  0  0999 V2000
   -4.0480    6.0660    2.5890 S   0  0  0  0  0  0  0  0  0  0  0  0
   -5.2100    6.2310    1.3940 N   0  0  0  0  0  0  0  0  0  0  0  0
   -0.1640   -0.4950   -0.2880 C   0  0  0  0  0  0  0  0  0  0  0  0
   -0.7880   -1.6440   -0.4390 N   0  0  0  0  0  0  0  0  0  0  0  0
   -0.7950    0.6370    0.1990 N   0  0  0  0  0  0  0  0  0  0  0  0
    0.0880   -2.5860   -0.9400 C   0  0  0  0  0  0  0  0  0  0  0  0
    1.4870   -0.4910   -0.7360 S   0  0  0  0  0  0  0  0  0  0  0  0
   -0.2290    1.8900    0.3940 C   0  0  0  0  0  0  0  0  0  0  0  0
    1.3720   -2.1440   -1.1660 C   0  0  0  0  0  0  0  0  0  0  0  0
   -4.8020    6.8550    0.1070 C   0  0  0  0  0  0  0  0  0  0  0  0
   -6.1520    5.1010    1.1760 C   0  0  0  0  0  0  0  0  0  0  0  0
   -2.9750    4.8360    1.9310 C   0  0  0  0  0  0  0  0  0  0  0  0
   -4.7050    5.5250    3.7670 O   0  0  0  0  0  0  0  0  0  0  0  0
   -3.3250    7.3220    2.6740 O   0  0  0  0  0  0  0  0  0  0  0  0
   -6.8700    6.0550   -0.9900 O   0  0  0  0  0  0  0  0  0  0  0  0
   -1.2460    2.8610    0.9420 C   0  0  0  0  0  0  0  0  0  0  0  0
   -0.2360   -3.9400   -1.2300 C   0  0  0  0  0  0  0  0  0  0  0  0
   -7.3310    5.5180    0.2670 C   0  0  3  0  0  0  0  0  0  0  0  0
   -6.0320    7.2060   -0.7630 C   0  0  3  0  0  0  0  0  0  0  0  0
    0.9250    2.2490    0.1800 O   0  0  0  0  0  0  0  0  0  0  0  0
   -3.2120    3.4870    2.1900 C   0  0  0  0  0  0  0  0  0  0  0  0
   -1.8610    5.2160    1.1850 C   0  0  0  0  0  0  0  0  0  0  0  0
   -0.9840    4.2460    0.6940 C   0  0  0  0  0  0  0  0  0  0  0  0
   -2.3390    2.5120    1.7000 C   0  0  0  0  0  0  0  0  0  0  0  0
   -1.4400   -4.4590   -1.0470 F   0  0  0  0  0  0  0  0  0  0  0  0
    2.3800   -2.9940   -1.6760 C   0  0  0  0  0  0  0  0  0  0  0  0
    2.0430   -4.3210   -1.9550 C   0  0  0  0  0  0  0  0  0  0  0  0
    0.7520   -4.7900   -1.7350 C   0  0  0  0  0  0  0  0  0  0  0  0
   -5.5930    7.7360   -2.1220 C   0  0  0  0  0  0  0  0  0  0  0  0
   -8.2210    4.3200   -0.0390 C   0  0  0  0  0  0  0  0  0  0  0  0
   -1.7720    0.5410    0.4380 H   0  0  0  0  0  0  0  0  0  0  0  0
   -4.1680    6.1580   -0.4400 H   0  0  0  0  0  0  0  0  0  0  0  0
   -4.2430    7.7670    0.3160 H   0  0  0  0  0  0  0  0  0  0  0  0
   -6.5450    4.7750    2.1390 H   0  0  0  0  0  0  0  0  0  0  0  0
   -5.6150    4.2770    0.7050 H   0  0  0  0  0  0  0  0  0  0  0  0
   -7.8880    6.2830    0.8090 H   0  0  0  0  0  0  0  0  0  0  0  0
   -6.5940    7.9640   -0.2180 H   0  0  0  0  0  0  0  0  0  0  0  0
   -4.0740    3.1940    2.7720 H   0  0  0  0  0  0  0  0  0  0  0  0
   -1.6760    6.2610    0.9860 H   0  0  0  0  0  0  0  0  0  0  0  0
   -0.1120    4.5400    0.1290 H   0  0  0  0  0  0  0  0  0  0  0  0
   -2.5250    1.4710    1.9190 H   0  0  0  0  0  0  0  0  0  0  0  0
    3.3820   -2.6280   -1.8450 H   0  0  0  0  0  0  0  0  0  0  0  0
    2.7940   -4.9910   -2.3460 H   0  0  0  0  0  0  0  0  0  0  0  0
    0.5110   -5.8190   -1.9560 H   0  0  0  0  0  0  0  0  0  0  0  0
   -5.0340    6.9640   -2.6500 H   0  0  0  0  0  0  0  0  0  0  0  0
   -4.9600    8.6120   -1.9830 H   0  0  0  0  0  0  0  0  0  0  0  0
   -6.4710    8.0110   -2.7060 H   0  0  0  0  0  0  0  0  0  0  0  0
   -7.6460    3.5690   -0.5800 H   0  0  0  0  0  0  0  0  0  0  0  0
   -9.0650    4.6410   -0.6500 H   0  0  0  0  0  0  0  0  0  0  0  0
   -8.5900    3.8930    0.8940 H   0  0  0  0  0  0  0  0  0  0  0  0
  1  2  1  0  0  0  0
  1 12  1  0  0  0  0
  1 13  2  0  0  0  0
  1 14  2  0  0  0  0
  2 10  1  0  0  0  0
  2 11  1  0  0  0  0
  3  4  2  0  0  0  0
  3  5  1  0  0  0  0
  3  7  1  0  0  0  0
  4  6  1  0  0  0  0
  5  8  1  0  0  0  0
  5 31  1  0  0  0  0
  6  9  2  0  0  0  0
  6 17  1  0  0  0  0
  7  9  1  0  0  0  0
  8 16  1  0  0  0  0
  8 20  2  0  0  0  0
  9 26  1  0  0  0  0
 10 19  1  0  0  0  0
 10 32  1  0  0  0  0
 10 33  1  0  0  0  0
 11 18  1  0  0  0  0
 11 34  1  0  0  0  0
 11 35  1  0  0  0  0
 12 21  1  0  0  0  0
 12 22  2  0  0  0  0
 15 18  1  0  0  0  0
 15 19  1  0  0  0  0
 16 23  2  0  0  0  0
 16 24  1  0  0  0  0
 17 25  1  0  0  0  0
 17 28  2  0  0  0  0
 18 30  1  0  0  0  0
 18 36  1  0  0  0  0
 19 29  1  0  0  0  0
 19 37  1  0  0  0  0
 21 24  2  0  0  0  0
 21 38  1  0  0  0  0
 22 23  1  0  0  0  0
 22 39  1  0  0  0  0
 23 40  1  0  0  0  0
 24 41  1  0  0  0  0
 26 27  2  0  0  0  0
 26 42  1  0  0  0  0
 27 28  1  0  0  0  0
 27 43  1  0  0  0  0
 28 44  1  0  0  0  0
 29 45  1  0  0  0  0
 29 46  1  0  0  0  0
 29 47  1  0  0  0  0
 30 48  1  0  0  0  0
 30 49  1  0  0  0  0
 30 50  1  0  0  0  0
M  END
>  <$CLUSTER>
550

>  <INDEX>
276687

$$$$
InterBioScreen STOCK1S-56190
  MOE2020           3D

 49 52  0  0  0  0  0  0  0  0999 V2000
   -0.6080   -0.1850    0.3000 C   0  0  0  0  0  0  0  0  0  0  0  0
   -0.8500    1.1180    0.7100 C   0  0  0  0  0  0  0  0  0  0  0  0
   -2.5750   -0.7250    1.5080 N   0  0  0  0  0  0  0  0  0  0  0  0
   -2.6940    0.6130    1.8480 C   0  0  0  0  0  0  0  0  0  0  0  0
   -1.8810    1.5570    1.4850 N   0  0  0  0  0  0  0  0  0  0  0  0
   -1.5410   -1.2240    0.7190 C   0  0  0  0  0  0  0  0  0  0  0  0
    0.3320    2.1980    0.1150 S   0  0  0  0  0  0  0  0  0  0  0  0
    0.5710   -0.2920   -0.5030 C   0  0  0  0  0  0  0  0  0  0  0  0
    1.1600    0.9460   -0.6850 C   0  0  0  0  0  0  0  0  0  0  0  0
   -3.7080    1.0490    2.7860 N   0  0  0  0  0  0  0  0  0  0  0  0
   -3.6590   -1.6760    1.8840 C   0  0  0  0  0  0  0  0  0  0  0  0
   -3.9160    2.3470    3.1180 N   0  0  0  0  0  0  0  0  0  0  0  0
   -1.4290   -2.4050    0.4070 O   0  0  0  0  0  0  0  0  0  0  0  0
   -3.3200   -2.9240    2.4290 C   0  0  0  0  0  0  0  0  0  0  0  0
   -5.0140   -1.3850    1.6600 C   0  0  0  0  0  0  0  0  0  0  0  0
   -4.8860    2.6130    3.9380 C   0  0  0  0  0  0  0  0  0  0  0  0
   -5.6560   -3.5380    2.5530 C   0  0  0  0  0  0  0  0  0  0  0  0
    1.1350   -1.5330   -1.1310 C   0  0  0  0  0  0  0  0  0  0  0  0
   -4.3140   -3.8450    2.7670 C   0  0  0  0  0  0  0  0  0  0  0  0
   -6.0050   -2.3090    1.9970 C   0  0  0  0  0  0  0  0  0  0  0  0
    2.4120    1.2010   -1.4650 C   0  0  0  0  0  0  0  0  0  0  0  0
   -6.5360   -4.5280    2.9190 O   0  0  0  0  0  0  0  0  0  0  0  0
   -5.1120    4.0580    4.3090 C   0  0  0  0  0  0  0  0  0  0  0  0
   -5.8140    1.5940    4.5560 C   0  0  0  0  0  0  0  0  0  0  0  0
   -7.9200   -4.2650    2.7170 C   0  0  0  0  0  0  0  0  0  0  0  0
    2.5750   -1.3270   -1.6270 C   0  0  0  0  0  0  0  0  0  0  0  0
    2.7350    0.0050   -2.3720 C   0  0  0  0  0  0  0  0  0  0  0  0
   -4.2930    0.3470    3.2170 H   0  0  0  0  0  0  0  0  0  0  0  0
   -2.2820   -3.1740    2.5880 H   0  0  0  0  0  0  0  0  0  0  0  0
   -5.2920   -0.4370    1.2230 H   0  0  0  0  0  0  0  0  0  0  0  0
    0.5090   -1.8140   -1.9770 H   0  0  0  0  0  0  0  0  0  0  0  0
    1.1290   -2.3350   -0.3920 H   0  0  0  0  0  0  0  0  0  0  0  0
   -4.0420   -4.7980    3.1960 H   0  0  0  0  0  0  0  0  0  0  0  0
   -7.0440   -2.0710    1.8260 H   0  0  0  0  0  0  0  0  0  0  0  0
    3.2390    1.3600   -0.7730 H   0  0  0  0  0  0  0  0  0  0  0  0
    2.2760    2.0910   -2.0800 H   0  0  0  0  0  0  0  0  0  0  0  0
   -5.9530    4.1290    4.9990 H   0  0  0  0  0  0  0  0  0  0  0  0
   -5.3300    4.6340    3.4100 H   0  0  0  0  0  0  0  0  0  0  0  0
   -4.2160    4.4550    4.7860 H   0  0  0  0  0  0  0  0  0  0  0  0
   -6.5310    2.1000    5.2020 H   0  0  0  0  0  0  0  0  0  0  0  0
   -5.2330    0.8830    5.1440 H   0  0  0  0  0  0  0  0  0  0  0  0
   -6.3480    1.0630    3.7680 H   0  0  0  0  0  0  0  0  0  0  0  0
   -8.5050   -5.1240    3.0460 H   0  0  0  0  0  0  0  0  0  0  0  0
   -8.1050   -4.0840    1.6580 H   0  0  0  0  0  0  0  0  0  0  0  0
   -8.2100   -3.3860    3.2920 H   0  0  0  0  0  0  0  0  0  0  0  0
    2.8360   -2.1420   -2.3020 H   0  0  0  0  0  0  0  0  0  0  0  0
    3.2480   -1.3350   -0.7700 H   0  0  0  0  0  0  0  0  0  0  0  0
    3.7640    0.0940   -2.7220 H   0  0  0  0  0  0  0  0  0  0  0  0
    2.0590    0.0160   -3.2270 H   0  0  0  0  0  0  0  0  0  0  0  0
  1  2  2  0  0  0  0
  1  6  1  0  0  0  0
  1  8  1  0  0  0  0
  2  5  1  0  0  0  0
  2  7  1  0  0  0  0
  3  4  1  0  0  0  0
  3  6  1  0  0  0  0
  3 11  1  0  0  0  0
  4  5  2  0  0  0  0
  4 10  1  0  0  0  0
  6 13  2  0  0  0  0
  7  9  1  0  0  0  0
  8  9  2  0  0  0  0
  8 18  1  0  0  0  0
  9 21  1  0  0  0  0
 10 12  1  0  0  0  0
 10 28  1  0  0  0  0
 11 14  2  0  0  0  0
 11 15  1  0  0  0  0
 12 16  2  0  0  0  0
 14 19  1  0  0  0  0
 14 29  1  0  0  0  0
 15 20  2  0  0  0  0
 15 30  1  0  0  0  0
 16 23  1  0  0  0  0
 16 24  1  0  0  0  0
 17 19  2  0  0  0  0
 17 20  1  0  0  0  0
 17 22  1  0  0  0  0
 18 26  1  0  0  0  0
 18 31  1  0  0  0  0
 18 32  1  0  0  0  0
 19 33  1  0  0  0  0
 20 34  1  0  0  0  0
 21 27  1  0  0  0  0
 21 35  1  0  0  0  0
 21 36  1  0  0  0  0
 22 25  1  0  0  0  0
 23 37  1  0  0  0  0
 23 38  1  0  0  0  0
 23 39  1  0  0  0  0
 24 40  1  0  0  0  0
 24 41  1  0  0  0  0
 24 42  1  0  0  0  0
 25 43  1  0  0  0  0
 25 44  1  0  0  0  0
 25 45  1  0  0  0  0
 26 27  1  0  0  0  0
 26 46  1  0  0  0  0
 26 47  1  0  0  0  0
 27 48  1  0  0  0  0
 27 49  1  0  0  0  0
M  END
>  <$CLUSTER>
551

>  <INDEX>
331981

$$$$
InterBioScreen STOCK4S-89897
  MOE2020           3D

 52 54  0  0  0  0  0  0  0  0999 V2000
    6.2500    1.3360    2.8660 N   0  3  0  0  0  0  0  0  0  0  0  0
    5.2150    1.5680    1.9650 C   0  0  0  0  0  0  0  0  0  0  0  0
    7.1860    0.3740    2.5400 C   0  0  0  0  0  0  0  0  0  0  0  0
    5.1620    0.8430    0.7750 C   0  0  0  0  0  0  0  0  0  0  0  0
    6.0800   -0.0960    0.4600 N   0  0  0  0  0  0  0  0  0  0  0  0
    0.5280    0.2250    0.2950 C   0  0  0  0  0  0  0  0  0  0  0  0
    7.0700   -0.3100    1.3470 C   0  0  0  0  0  0  0  0  0  0  0  0
    1.7050    0.7040   -0.4350 C   0  0  0  0  0  0  0  0  0  0  0  0
    6.3680    1.9870    3.9530 O   0  5  0  0  0  0  0  0  0  0  0  0
    8.2950    0.0620    3.3980 C   0  0  0  0  0  0  0  0  0  0  0  0
    4.2220    2.5920    2.3120 C   0  0  0  0  0  0  0  0  0  0  0  0
    4.0550    1.0290   -0.2440 C   0  0  0  0  0  0  0  0  0  0  0  0
    2.8100    0.6000    0.3370 O   0  0  0  0  0  0  0  0  0  0  0  0
   -0.4630   -0.5270   -0.3610 C   0  0  0  0  0  0  0  0  0  0  0  0
    1.6980    1.1100   -1.5870 O   0  0  0  0  0  0  0  0  0  0  0  0
    8.0240   -1.3060    0.9970 C   0  0  0  0  0  0  0  0  0  0  0  0
    4.0670    3.5600    1.5750 O   0  0  0  0  0  0  0  0  0  0  0  0
    9.2270   -0.9130    3.0530 C   0  0  0  0  0  0  0  0  0  0  0  0
    9.0910   -1.5970    1.8510 C   0  0  0  0  0  0  0  0  0  0  0  0
    0.3880    0.5550    1.6500 C   0  0  0  0  0  0  0  0  0  0  0  0
   -0.2470   -0.8200   -1.6830 O   0  0  0  0  0  0  0  0  0  0  0  0
   10.3050   -1.2780    3.8060 O   0  0  0  0  0  0  0  0  0  0  0  0
    3.4250    2.3980    3.5730 C   0  0  0  0  0  0  0  0  0  0  0  0
   -1.5850   -0.9440    0.3670 C   0  0  0  0  0  0  0  0  0  0  0  0
   -1.2540   -1.5580   -2.3660 C   0  0  0  0  0  0  0  0  0  0  0  0
   10.4950   -0.6080    5.0530 C   0  0  0  0  0  0  0  0  0  0  0  0
   -0.7330    0.1320    2.3590 C   0  0  0  0  0  0  0  0  0  0  0  0
   11.7440   -1.1770    5.7030 C   0  0  0  0  0  0  0  0  0  0  0  0
   -0.8900   -1.8020   -3.7840 C   0  0  0  0  0  0  0  0  0  0  0  0
   -1.7170   -0.6160    1.7190 C   0  0  0  0  0  0  0  0  0  0  0  0
    8.4080    0.5950    4.3300 H   0  0  0  0  0  0  0  0  0  0  0  0
    4.2700    0.4330   -1.1310 H   0  0  0  0  0  0  0  0  0  0  0  0
    3.9860    2.0810   -0.5220 H   0  0  0  0  0  0  0  0  0  0  0  0
    7.9230   -1.8410    0.0640 H   0  0  0  0  0  0  0  0  0  0  0  0
    9.8110   -2.3540    1.5770 H   0  0  0  0  0  0  0  0  0  0  0  0
    1.1510    1.1380    2.1450 H   0  0  0  0  0  0  0  0  0  0  0  0
    3.7350    1.4730    4.0600 H   0  0  0  0  0  0  0  0  0  0  0  0
    2.3640    2.3420    3.3280 H   0  0  0  0  0  0  0  0  0  0  0  0
    3.5980    3.2380    4.2450 H   0  0  0  0  0  0  0  0  0  0  0  0
   -2.3550   -1.5240   -0.1210 H   0  0  0  0  0  0  0  0  0  0  0  0
   -2.1870   -0.9960   -2.3330 H   0  0  0  0  0  0  0  0  0  0  0  0
   -1.3890   -2.5170   -1.8660 H   0  0  0  0  0  0  0  0  0  0  0  0
    9.6330   -0.7750    5.6980 H   0  0  0  0  0  0  0  0  0  0  0  0
   10.6200    0.4610    4.8840 H   0  0  0  0  0  0  0  0  0  0  0  0
   -0.8390    0.3840    3.4040 H   0  0  0  0  0  0  0  0  0  0  0  0
   11.6120   -2.2460    5.8690 H   0  0  0  0  0  0  0  0  0  0  0  0
   11.9160   -0.6790    6.6570 H   0  0  0  0  0  0  0  0  0  0  0  0
   12.6000   -1.0140    5.0490 H   0  0  0  0  0  0  0  0  0  0  0  0
   -0.7520   -0.8480   -4.2930 H   0  0  0  0  0  0  0  0  0  0  0  0
   -1.6870   -2.3630   -4.2720 H   0  0  0  0  0  0  0  0  0  0  0  0
    0.0370   -2.3740   -3.8280 H   0  0  0  0  0  0  0  0  0  0  0  0
   -2.5860   -0.9440    2.2700 H   0  0  0  0  0  0  0  0  0  0  0  0
  1  2  2  0  0  0  0
  1  3  1  0  0  0  0
  1  9  1  0  0  0  0
  2  4  1  0  0  0  0
  2 11  1  0  0  0  0
  3  7  2  0  0  0  0
  3 10  1  0  0  0  0
  4  5  2  0  0  0  0
  4 12  1  0  0  0  0
  5  7  1  0  0  0  0
  6  8  1  0  0  0  0
  6 14  2  0  0  0  0
  6 20  1  0  0  0  0
  7 16  1  0  0  0  0
  8 13  1  0  0  0  0
  8 15  2  0  0  0  0
 10 18  2  0  0  0  0
 10 31  1  0  0  0  0
 11 17  2  0  0  0  0
 11 23  1  0  0  0  0
 12 13  1  0  0  0  0
 12 32  1  0  0  0  0
 12 33  1  0  0  0  0
 14 21  1  0  0  0  0
 14 24  1  0  0  0  0
 16 19  2  0  0  0  0
 16 34  1  0  0  0  0
 18 19  1  0  0  0  0
 18 22  1  0  0  0  0
 19 35  1  0  0  0  0
 20 27  2  0  0  0  0
 20 36  1  0  0  0  0
 21 25  1  0  0  0  0
 22 26  1  0  0  0  0
 23 37  1  0  0  0  0
 23 38  1  0  0  0  0
 23 39  1  0  0  0  0
 24 30  2  0  0  0  0
 24 40  1  0  0  0  0
 25 29  1  0  0  0  0
 25 41  1  0  0  0  0
 25 42  1  0  0  0  0
 26 28  1  0  0  0  0
 26 43  1  0  0  0  0
 26 44  1  0  0  0  0
 27 30  1  0  0  0  0
 27 45  1  0  0  0  0
 28 46  1  0  0  0  0
 28 47  1  0  0  0  0
 28 48  1  0  0  0  0
 29 49  1  0  0  0  0
 29 50  1  0  0  0  0
 29 51  1  0  0  0  0
 30 52  1  0  0  0  0
M  CHG  1   1   1
M  CHG  1   9  -1
M  END
>  <$CLUSTER>
552

>  <INDEX>
362458

$$$$
Chem T&I SHCLME-040937
  MOE2020           3D

 50 52  0  0  0  0  0  0  0  0999 V2000
   -0.0400    0.0870    0.5170 N   0  0  0  0  0  0  0  0  0  0  0  0
   -0.5400   -0.9070   -0.2830 C   0  0  0  0  0  0  0  0  0  0  0  0
    1.2010    0.3850   -0.0030 C   0  0  0  0  0  0  0  0  0  0  0  0
    0.3270   -1.1960   -1.2270 N   0  0  0  0  0  0  0  0  0  0  0  0
    1.4220   -0.3840   -1.0510 N   0  0  0  0  0  0  0  0  0  0  0  0
   -2.0850   -1.6500   -0.0440 S   0  0  0  0  0  0  0  0  0  0  0  0
   -1.1460   -3.9970   -1.1890 C   0  0  0  0  0  0  0  0  0  0  0  0
    0.0530   -3.8300   -1.7950 N   0  0  0  0  0  0  0  0  0  0  0  0
    2.1320    1.4020    0.5390 C   0  0  0  0  0  0  0  0  0  0  0  0
   -1.3980   -4.9530   -0.4650 O   0  0  0  0  0  0  0  0  0  0  0  0
   -0.6630    0.7120    1.6690 C   0  0  0  0  0  0  0  0  0  0  0  0
   -2.1210   -2.8430   -1.4000 C   0  0  0  0  0  0  0  0  0  0  0  0
   -0.3730   -0.0310    2.9620 C   0  0  0  0  0  0  0  0  0  0  0  0
    1.6950    2.6650    0.0630 O   0  0  0  0  0  0  0  0  0  0  0  0
    0.1850    0.5050    4.0320 C   0  0  0  0  0  0  0  0  0  0  0  0
    2.4310    3.7770    0.4520 C   0  0  0  0  0  0  0  0  0  0  0  0
    1.2030   -4.6330   -1.8480 C   0  0  0  0  0  0  0  0  0  0  0  0
    3.7480    6.1650    1.0980 C   0  0  0  0  0  0  0  0  0  0  0  0
    1.9650    5.0010   -0.0410 C   0  0  0  0  0  0  0  0  0  0  0  0
    3.5630    3.7570    1.2710 C   0  0  0  0  0  0  0  0  0  0  0  0
    4.2180    4.9490    1.5920 C   0  0  0  0  0  0  0  0  0  0  0  0
    2.6200    6.1900    0.2810 C   0  0  0  0  0  0  0  0  0  0  0  0
    4.4540    7.4340    1.4440 C   0  0  0  0  0  0  0  0  0  0  0  0
    1.2950   -5.8500   -1.1640 C   0  0  0  0  0  0  0  0  0  0  0  0
    2.3020   -4.1990   -2.6050 C   0  0  0  0  0  0  0  0  0  0  0  0
    2.4630   -6.6150   -1.2370 C   0  0  0  0  0  0  0  0  0  0  0  0
    3.4680   -4.9660   -2.6750 C   0  0  0  0  0  0  0  0  0  0  0  0
    3.5490   -6.1740   -1.9910 C   0  0  0  0  0  0  0  0  0  0  0  0
    0.1360   -2.9630   -2.3060 H   0  0  0  0  0  0  0  0  0  0  0  0
    3.1460    1.2030    0.1930 H   0  0  0  0  0  0  0  0  0  0  0  0
    2.1100    1.3850    1.6290 H   0  0  0  0  0  0  0  0  0  0  0  0
   -1.7420    0.7350    1.5130 H   0  0  0  0  0  0  0  0  0  0  0  0
   -0.2870    1.7310    1.7600 H   0  0  0  0  0  0  0  0  0  0  0  0
   -1.8590   -2.3290   -2.3250 H   0  0  0  0  0  0  0  0  0  0  0  0
   -3.1300   -3.2480   -1.4820 H   0  0  0  0  0  0  0  0  0  0  0  0
   -0.6430   -1.0760    3.0100 H   0  0  0  0  0  0  0  0  0  0  0  0
    0.3550   -0.0980    4.9120 H   0  0  0  0  0  0  0  0  0  0  0  0
    0.4710    1.5460    4.0280 H   0  0  0  0  0  0  0  0  0  0  0  0
    1.0920    5.0250   -0.6760 H   0  0  0  0  0  0  0  0  0  0  0  0
    3.9320    2.8180    1.6570 H   0  0  0  0  0  0  0  0  0  0  0  0
    5.0920    4.9280    2.2260 H   0  0  0  0  0  0  0  0  0  0  0  0
    2.2520    7.1300   -0.1030 H   0  0  0  0  0  0  0  0  0  0  0  0
    5.3060    7.2120    2.0870 H   0  0  0  0  0  0  0  0  0  0  0  0
    3.7680    8.1010    1.9670 H   0  0  0  0  0  0  0  0  0  0  0  0
    4.8040    7.9160    0.5310 H   0  0  0  0  0  0  0  0  0  0  0  0
    0.4590   -6.2000   -0.5760 H   0  0  0  0  0  0  0  0  0  0  0  0
    2.2460   -3.2620   -3.1390 H   0  0  0  0  0  0  0  0  0  0  0  0
    2.5240   -7.5530   -0.7060 H   0  0  0  0  0  0  0  0  0  0  0  0
    4.3070   -4.6200   -3.2610 H   0  0  0  0  0  0  0  0  0  0  0  0
    4.4500   -6.7680   -2.0440 H   0  0  0  0  0  0  0  0  0  0  0  0
  1  2  1  0  0  0  0
  1  3  1  0  0  0  0
  1 11  1  0  0  0  0
  2  4  2  0  0  0  0
  2  6  1  0  0  0  0
  3  5  2  0  0  0  0
  3  9  1  0  0  0  0
  4  5  1  0  0  0  0
  6 12  1  0  0  0  0
  7  8  1  0  0  0  0
  7 10  2  0  0  0  0
  7 12  1  0  0  0  0
  8 17  1  0  0  0  0
  8 29  1  0  0  0  0
  9 14  1  0  0  0  0
  9 30  1  0  0  0  0
  9 31  1  0  0  0  0
 11 13  1  0  0  0  0
 11 32  1  0  0  0  0
 11 33  1  0  0  0  0
 12 34  1  0  0  0  0
 12 35  1  0  0  0  0
 13 15  2  0  0  0  0
 13 36  1  0  0  0  0
 14 16  1  0  0  0  0
 15 37  1  0  0  0  0
 15 38  1  0  0  0  0
 16 19  1  0  0  0  0
 16 20  2  0  0  0  0
 17 24  2  0  0  0  0
 17 25  1  0  0  0  0
 18 21  2  0  0  0  0
 18 22  1  0  0  0  0
 18 23  1  0  0  0  0
 19 22  2  0  0  0  0
 19 39  1  0  0  0  0
 20 21  1  0  0  0  0
 20 40  1  0  0  0  0
 21 41  1  0  0  0  0
 22 42  1  0  0  0  0
 23 43  1  0  0  0  0
 23 44  1  0  0  0  0
 23 45  1  0  0  0  0
 24 26  1  0  0  0  0
 24 46  1  0  0  0  0
 25 27  2  0  0  0  0
 25 47  1  0  0  0  0
 26 28  2  0  0  0  0
 26 48  1  0  0  0  0
 27 28  1  0  0  0  0
 27 49  1  0  0  0  0
 28 50  1  0  0  0  0
M  END
>  <$CLUSTER>
553

>  <INDEX>
633994

$$$$
InterBioScreen STOCK4S-65808
  MOE2020           3D

 40 41  0  0  0  0  0  0  0  0999 V2000
   -0.2240   -0.4330   -0.3160 C   0  0  0  0  0  0  0  0  0  0  0  0
    1.4240   -0.4240   -0.7690 S   0  0  0  0  0  0  0  0  0  0  0  0
   -0.8240   -1.5920   -0.4960 N   0  0  0  0  0  0  0  0  0  0  0  0
    0.0280   -2.5490   -1.0170 N   0  0  0  0  0  0  0  0  0  0  0  0
   -0.8630    0.6830    0.1920 N   0  0  0  0  0  0  0  0  0  0  0  0
    1.2360   -2.0680   -1.2070 C   0  0  0  0  0  0  0  0  0  0  0  0
   -0.3020    1.9340    0.4100 C   0  0  0  0  0  0  0  0  0  0  0  0
   -1.8170    5.2200    1.8100 C   0  0  0  0  0  0  0  0  0  0  0  0
   -1.3220    6.4820    2.0530 N   0  0  0  0  0  0  0  0  0  0  0  0
   -1.9480    7.6340    2.5710 C   0  0  0  0  0  0  0  0  0  0  0  0
   -3.2950    7.6620    2.9490 C   0  0  0  0  0  0  0  0  0  0  0  0
    0.8500    2.3010    0.2020 O   0  0  0  0  0  0  0  0  0  0  0  0
   -2.9830    4.8980    2.0340 O   0  0  0  0  0  0  0  0  0  0  0  0
   -1.3220    2.8910    0.9770 C   0  0  0  0  0  0  0  0  0  0  0  0
   -3.8600    8.8360    3.4570 C   0  0  0  0  0  0  0  0  0  0  0  0
   -0.7800    4.2880    1.2460 C   0  0  0  0  0  0  0  0  0  0  0  0
   -5.6470    8.8340    3.9490 Br  0  0  0  0  0  0  0  0  0  0  0  0
    2.3810   -2.8600   -1.7620 C   0  0  0  0  0  0  0  0  0  0  0  0
   -1.7500    9.9720    3.2190 C   0  0  0  0  0  0  0  0  0  0  0  0
   -1.1820    8.8010    2.7110 C   0  0  0  0  0  0  0  0  0  0  0  0
   -3.0900    9.9890    3.5920 C   0  0  0  0  0  0  0  0  0  0  0  0
    2.3820   -2.8520   -3.2820 C   0  0  0  0  0  0  0  0  0  0  0  0
    3.5460   -3.6570   -3.8570 C   0  0  0  0  0  0  0  0  0  0  0  0
   -1.8390    0.5770    0.4290 H   0  0  0  0  0  0  0  0  0  0  0  0
   -0.3460    6.6020    1.8210 H   0  0  0  0  0  0  0  0  0  0  0  0
   -3.9010    6.7730    2.8480 H   0  0  0  0  0  0  0  0  0  0  0  0
   -1.6920    2.4800    1.9170 H   0  0  0  0  0  0  0  0  0  0  0  0
   -2.1450    2.9740    0.2680 H   0  0  0  0  0  0  0  0  0  0  0  0
    0.0420    4.2110    1.9580 H   0  0  0  0  0  0  0  0  0  0  0  0
   -0.4110    4.7040    0.3090 H   0  0  0  0  0  0  0  0  0  0  0  0
    2.3010   -3.8900   -1.4140 H   0  0  0  0  0  0  0  0  0  0  0  0
    3.3160   -2.4280   -1.4050 H   0  0  0  0  0  0  0  0  0  0  0  0
   -1.1490   10.8630    3.3220 H   0  0  0  0  0  0  0  0  0  0  0  0
   -0.1410    8.7940    2.4230 H   0  0  0  0  0  0  0  0  0  0  0  0
   -3.5320   10.8930    3.9850 H   0  0  0  0  0  0  0  0  0  0  0  0
    2.4610   -1.8220   -3.6290 H   0  0  0  0  0  0  0  0  0  0  0  0
    1.4460   -3.2840   -3.6370 H   0  0  0  0  0  0  0  0  0  0  0  0
    4.4880   -3.2340   -3.5080 H   0  0  0  0  0  0  0  0  0  0  0  0
    3.5120   -3.6190   -4.9460 H   0  0  0  0  0  0  0  0  0  0  0  0
    3.4690   -4.6930   -3.5270 H   0  0  0  0  0  0  0  0  0  0  0  0
  1  2  1  0  0  0  0
  1  3  2  0  0  0  0
  1  5  1  0  0  0  0
  2  6  1  0  0  0  0
  3  4  1  0  0  0  0
  4  6  2  0  0  0  0
  5  7  1  0  0  0  0
  5 24  1  0  0  0  0
  6 18  1  0  0  0  0
  7 12  2  0  0  0  0
  7 14  1  0  0  0  0
  8  9  1  0  0  0  0
  8 13  2  0  0  0  0
  8 16  1  0  0  0  0
  9 10  1  0  0  0  0
  9 25  1  0  0  0  0
 10 11  2  0  0  0  0
 10 20  1  0  0  0  0
 11 15  1  0  0  0  0
 11 26  1  0  0  0  0
 14 16  1  0  0  0  0
 14 27  1  0  0  0  0
 14 28  1  0  0  0  0
 15 17  1  0  0  0  0
 15 21  2  0  0  0  0
 16 29  1  0  0  0  0
 16 30  1  0  0  0  0
 18 22  1  0  0  0  0
 18 31  1  0  0  0  0
 18 32  1  0  0  0  0
 19 20  2  0  0  0  0
 19 21  1  0  0  0  0
 19 33  1  0  0  0  0
 20 34  1  0  0  0  0
 21 35  1  0  0  0  0
 22 23  1  0  0  0  0
 22 36  1  0  0  0  0
 22 37  1  0  0  0  0
 23 38  1  0  0  0  0
 23 39  1  0  0  0  0
 23 40  1  0  0  0  0
M  END
>  <$CLUSTER>
554

>  <INDEX>
358888

$$$$
InterBioScreen STOCK5S-69476
  MOE2020           3D

 37 39  0  0  0  0  0  0  0  0999 V2000
   -0.5660    0.7990   -0.1040 C   0  0  0  0  0  0  0  0  0  0  0  0
   -1.1620   -0.4440   -0.0780 C   0  0  0  0  0  0  0  0  0  0  0  0
    0.8950   -0.8390    0.1310 C   0  0  0  0  0  0  0  0  0  0  0  0
    0.7560    0.5250    0.0300 N   0  0  0  0  0  0  0  0  0  0  0  0
   -0.2500   -1.4710    0.0690 N   0  0  0  0  0  0  0  0  0  0  0  0
   -2.5380   -0.5910   -0.1910 N   0  0  0  0  0  0  0  0  0  0  0  0
   -2.6690    1.8210   -0.3570 N   0  0  0  0  0  0  0  0  0  0  0  0
   -3.3550    0.5550   -0.3370 C   0  0  0  0  0  0  0  0  0  0  0  0
   -1.2700    2.0300   -0.2460 C   0  0  0  0  0  0  0  0  0  0  0  0
    2.2310   -1.0760    0.2630 N   0  0  0  0  0  0  0  0  0  0  0  0
    1.9830    1.1530    0.0960 C   0  0  0  0  0  0  0  0  0  0  0  0
    2.9030    0.1700    0.2400 C   0  0  0  0  0  0  0  0  0  0  0  0
   -4.5840    0.4810   -0.4420 O   0  0  0  0  0  0  0  0  0  0  0  0
   -0.7160    3.1250   -0.2670 O   0  0  0  0  0  0  0  0  0  0  0  0
   -3.1290   -1.9230   -0.1590 C   0  0  0  0  0  0  0  0  0  0  0  0
   -3.5180    2.9970   -0.5070 C   0  0  0  0  0  0  0  0  0  0  0  0
    2.7840   -2.4060    0.3830 C   0  0  0  0  0  0  0  0  0  0  0  0
    2.1620    2.5250    0.0210 C   0  0  0  0  0  0  0  0  0  0  0  0
    4.3750    0.3110    0.3570 C   0  0  0  0  0  0  0  0  0  0  0  0
    3.0900   -2.9870   -0.9890 C   0  0  0  0  0  0  0  0  0  0  0  0
   -2.3410   -2.6670   -0.0410 H   0  0  0  0  0  0  0  0  0  0  0  0
   -3.6650   -2.1050   -1.0910 H   0  0  0  0  0  0  0  0  0  0  0  0
   -3.8230   -1.9930    0.6790 H   0  0  0  0  0  0  0  0  0  0  0  0
   -4.5600    2.6860   -0.5800 H   0  0  0  0  0  0  0  0  0  0  0  0
   -3.2360    3.5360   -1.4110 H   0  0  0  0  0  0  0  0  0  0  0  0
   -3.3930    3.6480    0.3580 H   0  0  0  0  0  0  0  0  0  0  0  0
    2.0650   -3.0480    0.8910 H   0  0  0  0  0  0  0  0  0  0  0  0
    3.7040   -2.3600    0.9650 H   0  0  0  0  0  0  0  0  0  0  0  0
    1.1940    3.0120   -0.0940 H   0  0  0  0  0  0  0  0  0  0  0  0
    2.7930    2.7630   -0.8360 H   0  0  0  0  0  0  0  0  0  0  0  0
    2.6400    2.8790    0.9340 H   0  0  0  0  0  0  0  0  0  0  0  0
    4.8270   -0.6750    0.4610 H   0  0  0  0  0  0  0  0  0  0  0  0
    4.6140    0.9140    1.2330 H   0  0  0  0  0  0  0  0  0  0  0  0
    4.7660    0.7970   -0.5370 H   0  0  0  0  0  0  0  0  0  0  0  0
    2.1730   -3.0360   -1.5760 H   0  0  0  0  0  0  0  0  0  0  0  0
    3.5020   -3.9900   -0.8750 H   0  0  0  0  0  0  0  0  0  0  0  0
    3.8140   -2.3520   -1.4990 H   0  0  0  0  0  0  0  0  0  0  0  0
  1  2  2  0  0  0  0
  1  4  1  0  0  0  0
  1  9  1  0  0  0  0
  2  5  1  0  0  0  0
  2  6  1  0  0  0  0
  3  4  1  0  0  0  0
  3  5  2  0  0  0  0
  3 10  1  0  0  0  0
  4 11  1  0  0  0  0
  6  8  1  0  0  0  0
  6 15  1  0  0  0  0
  7  8  1  0  0  0  0
  7  9  1  0  0  0  0
  7 16  1  0  0  0  0
  8 13  2  0  0  0  0
  9 14  2  0  0  0  0
 10 12  1  0  0  0  0
 10 17  1  0  0  0  0
 11 12  2  0  0  0  0
 11 18  1  0  0  0  0
 12 19  1  0  0  0  0
 15 21  1  0  0  0  0
 15 22  1  0  0  0  0
 15 23  1  0  0  0  0
 16 24  1  0  0  0  0
 16 25  1  0  0  0  0
 16 26  1  0  0  0  0
 17 20  1  0  0  0  0
 17 27  1  0  0  0  0
 17 28  1  0  0  0  0
 18 29  1  0  0  0  0
 18 30  1  0  0  0  0
 18 31  1  0  0  0  0
 19 32  1  0  0  0  0
 19 33  1  0  0  0  0
 19 34  1  0  0  0  0
 20 35  1  0  0  0  0
 20 36  1  0  0  0  0
 20 37  1  0  0  0  0
M  END
>  <$CLUSTER>
555

>  <INDEX>
385206

$$$$
InterBioScreen STOCK5S-05837
  MOE2020           3D

 56 59  0  0  1  0  0  0  0  0999 V2000
    0.5410    0.9200   -0.0680 C   0  0  0  0  0  0  0  0  0  0  0  0
    1.4550   -1.3520   -0.0900 C   0  0  0  0  0  0  0  0  0  0  0  0
   -0.7970    0.4040    0.0930 C   0  0  0  0  0  0  0  0  0  0  0  0
    1.5760    0.0950   -0.1480 C   0  0  0  0  0  0  0  0  0  0  0  0
   -0.9410   -0.9900    0.1470 C   0  0  0  0  0  0  0  0  0  0  0  0
    0.1700   -1.8490    0.0520 O   0  0  0  0  0  0  0  0  0  0  0  0
   -3.3230   -0.7700    0.4020 C   0  0  0  0  0  0  0  0  0  0  0  0
   -2.1940   -1.5810    0.3000 C   0  0  0  0  0  0  0  0  0  0  0  0
   -1.9330    1.2070    0.1990 C   0  0  0  0  0  0  0  0  0  0  0  0
   -4.6360   -3.2880   -0.7840 C   0  0  0  0  0  0  0  0  0  0  0  0
   -4.6310   -1.2670    0.5590 O   0  0  0  0  0  0  0  0  0  0  0  0
   -3.1930    0.6200    0.3520 C   0  0  0  0  0  0  0  0  0  0  0  0
    0.7110   -5.5300   -4.8050 C   0  0  0  0  0  0  0  0  0  0  0  0
   -4.5530   -4.6510   -0.7950 N   0  0  0  0  0  0  0  0  0  0  0  0
   -4.7770   -2.6910    0.6130 C   0  0  3  0  0  0  0  0  0  0  0  0
    2.4320   -2.0920   -0.1630 O   0  0  0  0  0  0  0  0  0  0  0  0
   -0.7480   -5.3590   -4.3890 C   0  0  0  0  0  0  0  0  0  0  0  0
   -4.5750   -2.5870   -1.7980 O   0  0  0  0  0  0  0  0  0  0  0  0
    1.2950   -6.5880   -4.5290 O   0  0  0  0  0  0  0  0  0  0  0  0
   -1.3820   -6.7160   -4.0590 C   0  0  0  0  0  0  0  0  0  0  0  0
   -0.8650   -4.3980   -3.1980 C   0  0  0  0  0  0  0  0  0  0  0  0
   -4.5610    1.6730    0.4750 Cl  0  0  0  0  0  0  0  0  0  0  0  0
    0.9480    2.3400   -0.1530 C   0  0  0  0  0  0  0  0  0  0  0  0
   -4.4100   -5.4540   -1.9840 C   0  0  0  0  0  0  0  0  0  0  0  0
    1.2000   -4.4610   -5.3510 O   0  5  0  0  0  0  0  0  0  0  0  0
    2.8600    0.8150   -0.2970 C   0  0  0  0  0  0  0  0  0  0  0  0
   -2.8270   -6.5550   -3.5910 C   0  0  0  0  0  0  0  0  0  0  0  0
   -2.2940   -4.2580   -2.7450 C   0  0  0  0  0  0  0  0  0  0  0  0
   -2.9540   -5.5960   -2.3830 C   0  0  0  0  0  0  0  0  0  0  0  0
    2.3990    2.2350   -0.6250 C   0  0  0  0  0  0  0  0  0  0  0  0
   -6.1220   -3.0080    1.2100 C   0  0  0  0  0  0  0  0  0  0  0  0
   -2.2890   -2.6560    0.3390 H   0  0  0  0  0  0  0  0  0  0  0  0
   -1.8390    2.2820    0.1630 H   0  0  0  0  0  0  0  0  0  0  0  0
   -4.5950   -5.1310    0.0930 H   0  0  0  0  0  0  0  0  0  0  0  0
   -3.9960   -3.1290    1.2350 H   0  0  0  0  0  0  0  0  0  0  0  0
   -1.2920   -4.9260   -5.2280 H   0  0  0  0  0  0  0  0  0  0  0  0
   -1.3660   -7.3420   -4.9510 H   0  0  0  0  0  0  0  0  0  0  0  0
   -0.8040   -7.1950   -3.2690 H   0  0  0  0  0  0  0  0  0  0  0  0
   -0.2670   -4.7820   -2.3720 H   0  0  0  0  0  0  0  0  0  0  0  0
   -0.4890   -3.4190   -3.4940 H   0  0  0  0  0  0  0  0  0  0  0  0
    0.3370    2.8830   -0.8740 H   0  0  0  0  0  0  0  0  0  0  0  0
    0.8830    2.8280    0.8190 H   0  0  0  0  0  0  0  0  0  0  0  0
   -4.8240   -6.4440   -1.7950 H   0  0  0  0  0  0  0  0  0  0  0  0
   -4.9570   -4.9810   -2.8000 H   0  0  0  0  0  0  0  0  0  0  0  0
    3.4360    0.7900    0.6280 H   0  0  0  0  0  0  0  0  0  0  0  0
    3.4560    0.3960   -1.1080 H   0  0  0  0  0  0  0  0  0  0  0  0
   -3.2120   -7.5330   -3.3030 H   0  0  0  0  0  0  0  0  0  0  0  0
   -3.4200   -6.1590   -4.4160 H   0  0  0  0  0  0  0  0  0  0  0  0
   -2.8670   -3.7960   -3.5490 H   0  0  0  0  0  0  0  0  0  0  0  0
   -2.3160   -3.6130   -1.8660 H   0  0  0  0  0  0  0  0  0  0  0  0
   -2.4350   -5.9960   -1.5120 H   0  0  0  0  0  0  0  0  0  0  0  0
    3.0190    2.9630   -0.1010 H   0  0  0  0  0  0  0  0  0  0  0  0
    2.4590    2.4120   -1.6990 H   0  0  0  0  0  0  0  0  0  0  0  0
   -6.9060   -2.5720    0.5910 H   0  0  0  0  0  0  0  0  0  0  0  0
   -6.1800   -2.5930    2.2160 H   0  0  0  0  0  0  0  0  0  0  0  0
   -6.2540   -4.0890    1.2550 H   0  0  0  0  0  0  0  0  0  0  0  0
  1  3  1  0  0  0  0
  1  4  2  0  0  0  0
  1 23  1  0  0  0  0
  2  4  1  0  0  0  0
  2  6  1  0  0  0  0
  2 16  2  0  0  0  0
  3  5  1  0  0  0  0
  3  9  2  0  0  0  0
  4 26  1  0  0  0  0
  5  6  1  0  0  0  0
  5  8  2  0  0  0  0
  7  8  1  0  0  0  0
  7 11  1  0  0  0  0
  7 12  2  0  0  0  0
  8 32  1  0  0  0  0
  9 12  1  0  0  0  0
  9 33  1  0  0  0  0
 10 14  1  0  0  0  0
 10 15  1  0  0  0  0
 10 18  2  0  0  0  0
 11 15  1  0  0  0  0
 12 22  1  0  0  0  0
 13 17  1  0  0  0  0
 13 19  2  0  0  0  0
 13 25  1  0  0  0  0
 14 24  1  0  0  0  0
 14 34  1  0  0  0  0
 15 31  1  0  0  0  0
 15 35  1  0  0  0  0
 17 20  1  0  0  0  0
 17 21  1  0  0  0  0
 17 36  1  0  0  0  0
 20 27  1  0  0  0  0
 20 37  1  0  0  0  0
 20 38  1  0  0  0  0
 21 28  1  0  0  0  0
 21 39  1  0  0  0  0
 21 40  1  0  0  0  0
 23 30  1  0  0  0  0
 23 41  1  0  0  0  0
 23 42  1  0  0  0  0
 24 29  1  0  0  0  0
 24 43  1  0  0  0  0
 24 44  1  0  0  0  0
 26 30  1  0  0  0  0
 26 45  1  0  0  0  0
 26 46  1  0  0  0  0
 27 29  1  0  0  0  0
 27 47  1  0  0  0  0
 27 48  1  0  0  0  0
 28 29  1  0  0  0  0
 28 49  1  0  0  0  0
 28 50  1  0  0  0  0
 29 51  1  0  0  0  0
 30 52  1  0  0  0  0
 30 53  1  0  0  0  0
 31 54  1  0  0  0  0
 31 55  1  0  0  0  0
 31 56  1  0  0  0  0
M  CHG  1  25  -1
M  END
>  <$CLUSTER>
556

>  <INDEX>
365065

$$$$
InterBioScreen STOCK5S-14266
  MOE2020           3D

 34 35  0  0  1  0  0  0  0  0999 V2000
   -1.1910    0.7270    0.0660 S   0  0  0  0  0  0  0  0  0  0  0  0
    0.3530    0.8940   -0.8390 C   0  0  0  0  0  0  0  0  0  0  0  0
   -0.6640   -0.5580    1.2070 C   0  0  0  0  0  0  0  0  0  0  0  0
    1.3790    0.2150    0.0740 C   0  0  3  0  0  0  0  0  0  0  0  0
    3.7210    0.7080   -0.6940 C   0  0  0  0  0  0  0  0  0  0  0  0
    0.6870   -1.0350    0.6700 C   0  0  3  0  0  0  0  0  0  0  0  0
    2.6390   -0.0380   -0.6310 N   0  0  0  0  0  0  0  0  0  0  0  0
   -1.4360    1.9510    0.8190 O   0  0  0  0  0  0  0  0  0  0  0  0
   -2.2170    0.1970   -0.8230 O   0  0  0  0  0  0  0  0  0  0  0  0
    4.7020    0.1280   -1.4250 N   0  0  0  0  0  0  0  0  0  0  0  0
    3.9630    2.2090   -0.0110 S   0  0  0  0  0  0  0  0  0  0  0  0
    5.0040   -1.1840   -1.8840 C   0  0  0  0  0  0  0  0  0  0  0  0
    0.4490   -2.3530   -0.5440 Cl  0  0  0  0  0  0  0  0  0  0  0  0
    5.9550   -1.3620   -2.9020 C   0  0  0  0  0  0  0  0  0  0  0  0
    6.2710   -2.6410   -3.3690 C   0  0  0  0  0  0  0  0  0  0  0  0
    4.7350   -3.5960   -1.7750 C   0  0  0  0  0  0  0  0  0  0  0  0
    4.4170   -2.3150   -1.3100 C   0  0  0  0  0  0  0  0  0  0  0  0
    5.6560   -3.7590   -2.8080 C   0  0  0  0  0  0  0  0  0  0  0  0
    7.2680   -2.8100   -4.4680 C   0  0  0  0  0  0  0  0  0  0  0  0
    0.6030    1.9440   -0.9930 H   0  0  0  0  0  0  0  0  0  0  0  0
    0.2960    0.3890   -1.8030 H   0  0  0  0  0  0  0  0  0  0  0  0
   -1.3820   -1.3780    1.2190 H   0  0  0  0  0  0  0  0  0  0  0  0
   -0.5550   -0.1550    2.2140 H   0  0  0  0  0  0  0  0  0  0  0  0
    1.6860    0.8560    0.9000 H   0  0  0  0  0  0  0  0  0  0  0  0
    1.3140   -1.4660    1.4500 H   0  0  0  0  0  0  0  0  0  0  0  0
    2.6830   -0.9090   -1.1410 H   0  0  0  0  0  0  0  0  0  0  0  0
    5.3970    0.7990   -1.7200 H   0  0  0  0  0  0  0  0  0  0  0  0
    6.4480   -0.5010   -3.3290 H   0  0  0  0  0  0  0  0  0  0  0  0
    4.2650   -4.4610   -1.3320 H   0  0  0  0  0  0  0  0  0  0  0  0
    3.7120   -2.1990   -0.5000 H   0  0  0  0  0  0  0  0  0  0  0  0
    5.8920   -4.7480   -3.1730 H   0  0  0  0  0  0  0  0  0  0  0  0
    7.6380   -1.8320   -4.7760 H   0  0  0  0  0  0  0  0  0  0  0  0
    6.7930   -3.3030   -5.3160 H   0  0  0  0  0  0  0  0  0  0  0  0
    8.1000   -3.4180   -4.1130 H   0  0  0  0  0  0  0  0  0  0  0  0
  1  2  1  0  0  0  0
  1  3  1  0  0  0  0
  1  8  2  0  0  0  0
  1  9  2  0  0  0  0
  2  4  1  0  0  0  0
  2 20  1  0  0  0  0
  2 21  1  0  0  0  0
  3  6  1  0  0  0  0
  3 22  1  0  0  0  0
  3 23  1  0  0  0  0
  4  6  1  0  0  0  0
  4  7  1  0  0  0  0
  4 24  1  0  0  0  0
  5  7  1  0  0  0  0
  5 10  1  0  0  0  0
  5 11  2  0  0  0  0
  6 13  1  0  0  0  0
  6 25  1  0  0  0  0
  7 26  1  0  0  0  0
 10 12  1  0  0  0  0
 10 27  1  0  0  0  0
 12 14  2  0  0  0  0
 12 17  1  0  0  0  0
 14 15  1  0  0  0  0
 14 28  1  0  0  0  0
 15 18  2  0  0  0  0
 15 19  1  0  0  0  0
 16 17  2  0  0  0  0
 16 18  1  0  0  0  0
 16 29  1  0  0  0  0
 17 30  1  0  0  0  0
 18 31  1  0  0  0  0
 19 32  1  0  0  0  0
 19 33  1  0  0  0  0
 19 34  1  0  0  0  0
M  END
>  <$CLUSTER>
557

>  <INDEX>
366961

$$$$
InterBioScreen STOCK5S-19144
  MOE2020           3D

 28 28  0  0  1  0  0  0  0  0999 V2000
   -1.1950   -0.1520   -0.0230 S   0  0  0  0  0  0  0  0  0  0  0  0
    3.5960   -1.3410    0.4730 C   0  0  0  0  0  0  0  0  0  0  0  0
    0.3090   -1.1360    0.1230 C   0  0  0  0  0  0  0  0  0  0  0  0
   -0.3550    1.3160   -0.4200 C   0  0  0  0  0  0  0  0  0  0  0  0
    0.9520    1.2060   -0.1420 C   0  0  0  0  0  0  0  0  0  0  0  0
    2.6820   -0.5070   -0.1010 N   0  0  0  0  0  0  0  0  0  0  0  0
   -1.9720   -0.6080   -1.1670 O   0  0  0  0  0  0  0  0  0  0  0  0
   -1.8180   -0.0190    1.2880 O   0  0  0  0  0  0  0  0  0  0  0  0
    1.3960   -0.1000    0.4420 C   0  0  3  0  0  0  0  0  0  0  0  0
    3.3010   -1.8780    1.6780 N   0  0  0  0  0  0  0  0  0  0  0  0
    5.0410   -1.6840   -0.2900 S   0  0  0  0  0  0  0  0  0  0  0  0
    3.9780   -2.7590    2.5650 C   0  0  0  0  0  0  0  0  0  0  0  0
    3.0170   -3.6950    3.2920 C   0  0  0  0  0  0  0  0  0  0  0  0
    4.8190   -1.9680    3.5650 C   0  0  0  0  0  0  0  0  0  0  0  0
    0.5270   -1.6520   -0.8120 H   0  0  0  0  0  0  0  0  0  0  0  0
    0.2190   -1.8650    0.9280 H   0  0  0  0  0  0  0  0  0  0  0  0
   -0.8220    2.1970   -0.8340 H   0  0  0  0  0  0  0  0  0  0  0  0
    1.6450    2.0130   -0.3280 H   0  0  0  0  0  0  0  0  0  0  0  0
    2.9260   -0.1290   -1.0050 H   0  0  0  0  0  0  0  0  0  0  0  0
    1.5290   -0.0080    1.5200 H   0  0  0  0  0  0  0  0  0  0  0  0
    2.3980   -1.5890    2.0260 H   0  0  0  0  0  0  0  0  0  0  0  0
    4.6380   -3.3820    1.9620 H   0  0  0  0  0  0  0  0  0  0  0  0
    2.3360   -3.1090    3.9090 H   0  0  0  0  0  0  0  0  0  0  0  0
    3.5840   -4.3780    3.9240 H   0  0  0  0  0  0  0  0  0  0  0  0
    2.4440   -4.2670    2.5620 H   0  0  0  0  0  0  0  0  0  0  0  0
    4.1660   -1.3410    4.1730 H   0  0  0  0  0  0  0  0  0  0  0  0
    5.5280   -1.3390    3.0260 H   0  0  0  0  0  0  0  0  0  0  0  0
    5.3630   -2.6590    4.2090 H   0  0  0  0  0  0  0  0  0  0  0  0
  1  3  1  0  0  0  0
  1  4  1  0  0  0  0
  1  7  2  0  0  0  0
  1  8  2  0  0  0  0
  2  6  1  0  0  0  0
  2 10  1  0  0  0  0
  2 11  2  0  0  0  0
  3  9  1  0  0  0  0
  3 15  1  0  0  0  0
  3 16  1  0  0  0  0
  4  5  2  0  0  0  0
  4 17  1  0  0  0  0
  5  9  1  0  0  0  0
  5 18  1  0  0  0  0
  6  9  1  0  0  0  0
  6 19  1  0  0  0  0
  9 20  1  0  0  0  0
 10 12  1  0  0  0  0
 10 21  1  0  0  0  0
 12 13  1  0  0  0  0
 12 14  1  0  0  0  0
 12 22  1  0  0  0  0
 13 23  1  0  0  0  0
 13 24  1  0  0  0  0
 13 25  1  0  0  0  0
 14 26  1  0  0  0  0
 14 27  1  0  0  0  0
 14 28  1  0  0  0  0
M  END
>  <$CLUSTER>
558

>  <INDEX>
368060

$$$$
InterBioScreen STOCK5S-06824
  MOE2020           3D

 40 42  0  0  0  0  0  0  0  0999 V2000
   -1.4060    1.5510    0.3550 N   0  0  0  0  0  0  0  0  0  0  0  0
   -0.9890    0.3810   -0.2400 C   0  0  0  0  0  0  0  0  0  0  0  0
   -1.9230   -0.2030   -1.0100 N   0  0  0  0  0  0  0  0  0  0  0  0
   -2.6340    1.6610   -0.0820 C   0  0  0  0  0  0  0  0  0  0  0  0
   -3.0190    0.6540   -0.9020 O   0  0  0  0  0  0  0  0  0  0  0  0
    0.3530   -0.1430   -0.0280 C   0  0  0  0  0  0  0  0  0  0  0  0
   -4.6130    4.9220   -0.5800 C   0  0  0  0  0  0  0  0  0  0  0  0
   -4.5710    5.9120   -1.5320 N   0  0  0  0  0  0  0  0  0  0  0  0
   -5.3330    7.0920   -1.6530 C   0  0  0  0  0  0  0  0  0  0  0  0
   -5.3750    4.9180    0.3750 O   0  0  0  0  0  0  0  0  0  0  0  0
    1.2610    0.5390    0.7970 C   0  0  0  0  0  0  0  0  0  0  0  0
    0.7650   -1.3360   -0.6400 C   0  0  0  0  0  0  0  0  0  0  0  0
   -3.6310    2.7220    0.1980 C   0  0  0  0  0  0  0  0  0  0  0  0
   -3.5880    3.8170   -0.8550 C   0  0  0  0  0  0  0  0  0  0  0  0
   -6.3280    7.4510   -0.7390 C   0  0  0  0  0  0  0  0  0  0  0  0
    2.9460   -1.1470    0.3890 C   0  0  0  0  0  0  0  0  0  0  0  0
    2.5490    0.0390    1.0020 C   0  0  0  0  0  0  0  0  0  0  0  0
    2.0550   -1.8340   -0.4320 C   0  0  0  0  0  0  0  0  0  0  0  0
    4.5180   -1.7430    0.6510 Cl  0  0  0  0  0  0  0  0  0  0  0  0
   -7.0510    8.6370   -0.9120 C   0  0  0  0  0  0  0  0  0  0  0  0
   -5.8010    9.1210   -2.9130 C   0  0  0  0  0  0  0  0  0  0  0  0
   -5.0770    7.9390   -2.7420 C   0  0  0  0  0  0  0  0  0  0  0  0
   -6.7890    9.4690   -1.9970 C   0  0  0  0  0  0  0  0  0  0  0  0
   -8.1130    9.0110    0.0740 C   0  0  0  0  0  0  0  0  0  0  0  0
   -3.8860    5.7720   -2.2610 H   0  0  0  0  0  0  0  0  0  0  0  0
    0.9610    1.4590    1.2780 H   0  0  0  0  0  0  0  0  0  0  0  0
    0.0800   -1.8750   -1.2780 H   0  0  0  0  0  0  0  0  0  0  0  0
   -3.4180    3.1600    1.1730 H   0  0  0  0  0  0  0  0  0  0  0  0
   -4.6270    2.2790    0.2080 H   0  0  0  0  0  0  0  0  0  0  0  0
   -2.5910    4.2570   -0.8640 H   0  0  0  0  0  0  0  0  0  0  0  0
   -3.7990    3.3760   -1.8290 H   0  0  0  0  0  0  0  0  0  0  0  0
   -6.5400    6.8100    0.1040 H   0  0  0  0  0  0  0  0  0  0  0  0
    3.2390    0.5740    1.6380 H   0  0  0  0  0  0  0  0  0  0  0  0
    2.3610   -2.7530   -0.9090 H   0  0  0  0  0  0  0  0  0  0  0  0
   -5.5940    9.7640   -3.7550 H   0  0  0  0  0  0  0  0  0  0  0  0
   -4.3110    7.6740   -3.4560 H   0  0  0  0  0  0  0  0  0  0  0  0
   -7.3510   10.3820   -2.1270 H   0  0  0  0  0  0  0  0  0  0  0  0
   -8.1750    8.2460    0.8480 H   0  0  0  0  0  0  0  0  0  0  0  0
   -9.0720    9.0890   -0.4370 H   0  0  0  0  0  0  0  0  0  0  0  0
   -7.8650    9.9700    0.5290 H   0  0  0  0  0  0  0  0  0  0  0  0
  1  2  1  0  0  0  0
  1  4  2  0  0  0  0
  2  3  2  0  0  0  0
  2  6  1  0  0  0  0
  3  5  1  0  0  0  0
  4  5  1  0  0  0  0
  4 13  1  0  0  0  0
  6 11  2  0  0  0  0
  6 12  1  0  0  0  0
  7  8  1  0  0  0  0
  7 10  2  0  0  0  0
  7 14  1  0  0  0  0
  8  9  1  0  0  0  0
  8 25  1  0  0  0  0
  9 15  2  0  0  0  0
  9 22  1  0  0  0  0
 11 17  1  0  0  0  0
 11 26  1  0  0  0  0
 12 18  2  0  0  0  0
 12 27  1  0  0  0  0
 13 14  1  0  0  0  0
 13 28  1  0  0  0  0
 13 29  1  0  0  0  0
 14 30  1  0  0  0  0
 14 31  1  0  0  0  0
 15 20  1  0  0  0  0
 15 32  1  0  0  0  0
 16 17  2  0  0  0  0
 16 18  1  0  0  0  0
 16 19  1  0  0  0  0
 17 33  1  0  0  0  0
 18 34  1  0  0  0  0
 20 23  2  0  0  0  0
 20 24  1  0  0  0  0
 21 22  2  0  0  0  0
 21 23  1  0  0  0  0
 21 35  1  0  0  0  0
 22 36  1  0  0  0  0
 23 37  1  0  0  0  0
 24 38  1  0  0  0  0
 24 39  1  0  0  0  0
 24 40  1  0  0  0  0
M  END
>  <$CLUSTER>
559

>  <INDEX>
365293

$$$$
InterBioScreen STOCK5S-15324
  MOE2020           3D

 45 48  0  0  0  0  0  0  0  0999 V2000
    0.2080    1.4770    1.8750 C   0  0  0  0  0  0  0  0  0  0  0  0
   -1.1340    1.0460    1.9270 C   0  0  0  0  0  0  0  0  0  0  0  0
    1.0670    0.9360    0.8950 C   0  0  0  0  0  0  0  0  0  0  0  0
   -1.6400    0.0630    0.9810 C   0  0  0  0  0  0  0  0  0  0  0  0
   -0.8420   -0.5010   -0.0420 C   0  0  0  0  0  0  0  0  0  0  0  0
    0.5020   -0.0280   -0.0170 C   0  0  0  0  0  0  0  0  0  0  0  0
    0.5800    2.5400    2.7680 N   0  3  0  0  0  0  0  0  0  0  0  0
   -2.1400    1.4010    2.7380 N   0  0  0  0  0  0  0  0  0  0  0  0
    2.4180    1.2610    0.7780 N   0  0  0  0  0  0  0  0  0  0  0  0
   -2.9310   -0.1580    1.2640 N   0  0  0  0  0  0  0  0  0  0  0  0
   -3.2340    0.6590    2.3370 O   0  0  0  0  0  0  0  0  0  0  0  0
   -1.3510   -1.4440   -0.9390 N   0  0  0  0  0  0  0  0  0  0  0  0
    5.2540    0.7080    0.5370 N   0  3  0  0  0  0  0  0  0  0  0  0
    0.7750    3.6530    2.2630 O   0  5  0  0  0  0  0  0  0  0  0  0
    0.6640    2.2620    3.9710 O   0  0  0  0  0  0  0  0  0  0  0  0
    3.0340    1.3600   -0.5390 C   0  0  0  0  0  0  0  0  0  0  0  0
    3.2650    1.4770    1.9400 C   0  0  0  0  0  0  0  0  0  0  0  0
   -0.8700   -1.9830   -2.1480 C   0  0  0  0  0  0  0  0  0  0  0  0
    4.5390    0.5690    1.8690 C   0  0  0  0  0  0  0  0  0  0  0  0
    4.3050    0.4510   -0.6200 C   0  0  0  0  0  0  0  0  0  0  0  0
    0.0830   -3.2050   -4.5060 C   0  0  0  0  0  0  0  0  0  0  0  0
    0.4890   -3.8510   -5.5980 F   0  0  0  0  0  0  0  0  0  0  0  0
    0.0200   -1.3130   -2.9980 C   0  0  0  0  0  0  0  0  0  0  0  0
   -1.2720   -3.2810   -2.5090 C   0  0  0  0  0  0  0  0  0  0  0  0
   -0.8010   -3.8870   -3.6760 C   0  0  0  0  0  0  0  0  0  0  0  0
    0.4910   -1.9180   -4.1680 C   0  0  0  0  0  0  0  0  0  0  0  0
    6.4840   -0.1430    0.4620 C   0  0  0  0  0  0  0  0  0  0  0  0
    1.1700   -0.4350   -0.7620 H   0  0  0  0  0  0  0  0  0  0  0  0
   -2.2490   -1.8160   -0.6640 H   0  0  0  0  0  0  0  0  0  0  0  0
    5.5710    1.6640    0.4620 H   0  0  0  0  0  0  0  0  0  0  0  0
    3.3210    2.3950   -0.7240 H   0  0  0  0  0  0  0  0  0  0  0  0
    2.3170    1.0420   -1.2950 H   0  0  0  0  0  0  0  0  0  0  0  0
    2.7030    1.2360    2.8430 H   0  0  0  0  0  0  0  0  0  0  0  0
    3.5710    2.5230    1.9710 H   0  0  0  0  0  0  0  0  0  0  0  0
    5.2220    0.8560    2.6680 H   0  0  0  0  0  0  0  0  0  0  0  0
    4.2400   -0.4710    2.0030 H   0  0  0  0  0  0  0  0  0  0  0  0
    3.9940   -0.5940   -0.5970 H   0  0  0  0  0  0  0  0  0  0  0  0
    4.8260    0.6540   -1.5560 H   0  0  0  0  0  0  0  0  0  0  0  0
    0.3470   -0.3150   -2.7460 H   0  0  0  0  0  0  0  0  0  0  0  0
   -1.9580   -3.8200   -1.8720 H   0  0  0  0  0  0  0  0  0  0  0  0
   -1.1230   -4.8850   -3.9340 H   0  0  0  0  0  0  0  0  0  0  0  0
    1.1740   -1.3840   -4.8120 H   0  0  0  0  0  0  0  0  0  0  0  0
    6.2040   -1.1940    0.5380 H   0  0  0  0  0  0  0  0  0  0  0  0
    7.1550    0.1150    1.2820 H   0  0  0  0  0  0  0  0  0  0  0  0
    6.9880    0.0300   -0.4890 H   0  0  0  0  0  0  0  0  0  0  0  0
  1  2  1  0  0  0  0
  1  3  2  0  0  0  0
  1  7  1  0  0  0  0
  2  4  1  0  0  0  0
  2  8  2  0  0  0  0
  3  6  1  0  0  0  0
  3  9  1  0  0  0  0
  4  5  1  0  0  0  0
  4 10  2  0  0  0  0
  5  6  2  0  0  0  0
  5 12  1  0  0  0  0
  6 28  1  0  0  0  0
  7 14  1  0  0  0  0
  7 15  2  0  0  0  0
  8 11  1  0  0  0  0
  9 16  1  0  0  0  0
  9 17  1  0  0  0  0
 10 11  1  0  0  0  0
 12 18  1  0  0  0  0
 12 29  1  0  0  0  0
 13 19  1  0  0  0  0
 13 20  1  0  0  0  0
 13 27  1  0  0  0  0
 13 30  1  0  0  0  0
 16 20  1  0  0  0  0
 16 31  1  0  0  0  0
 16 32  1  0  0  0  0
 17 19  1  0  0  0  0
 17 33  1  0  0  0  0
 17 34  1  0  0  0  0
 18 23  1  0  0  0  0
 18 24  2  0  0  0  0
 19 35  1  0  0  0  0
 19 36  1  0  0  0  0
 20 37  1  0  0  0  0
 20 38  1  0  0  0  0
 21 22  1  0  0  0  0
 21 25  2  0  0  0  0
 21 26  1  0  0  0  0
 23 26  2  0  0  0  0
 23 39  1  0  0  0  0
 24 25  1  0  0  0  0
 24 40  1  0  0  0  0
 25 41  1  0  0  0  0
 26 42  1  0  0  0  0
 27 43  1  0  0  0  0
 27 44  1  0  0  0  0
 27 45  1  0  0  0  0
M  CHG  1   7   1
M  CHG  1  13   1
M  CHG  1  14  -1
M  END
>  <$CLUSTER>
560

>  <INDEX>
367202

$$$$
InterBioScreen STOCK5S-18941
  MOE2020           3D

 52 55  0  0  0  0  0  0  0  0999 V2000
   -0.4270    1.2990    0.2070 C   0  0  0  0  0  0  0  0  0  0  0  0
   -1.2420    0.2040    0.7610 C   0  0  0  0  0  0  0  0  0  0  0  0
    0.7900    1.0940   -0.4550 C   0  0  0  0  0  0  0  0  0  0  0  0
   -1.9520   -0.6930   -0.0600 C   0  0  0  0  0  0  0  0  0  0  0  0
   -0.9610    2.5390    0.4140 N   0  0  0  0  0  0  0  0  0  0  0  0
   -1.3360    0.0420    2.1570 C   0  0  0  0  0  0  0  0  0  0  0  0
   -2.7100   -1.7310    0.4920 C   0  0  0  0  0  0  0  0  0  0  0  0
    1.4460   -0.2080   -0.6360 C   0  0  0  0  0  0  0  0  0  0  0  0
    0.8880    3.5070   -0.7660 N   0  0  0  0  0  0  0  0  0  0  0  0
   -4.9130   -4.7560    2.6750 C   0  0  0  0  0  0  0  0  0  0  0  0
   -0.2740    3.5780   -0.0930 C   0  0  0  0  0  0  0  0  0  0  0  0
   -4.2130   -3.7860    1.7390 C   0  0  0  0  0  0  0  0  0  0  0  0
   -2.7760   -1.8810    1.8770 C   0  0  0  0  0  0  0  0  0  0  0  0
    1.6110   -0.7570   -1.9200 C   0  0  0  0  0  0  0  0  0  0  0  0
    1.9530   -0.9200    0.4670 C   0  0  0  0  0  0  0  0  0  0  0  0
   -4.2480   -5.8580    3.2470 C   0  0  0  0  0  0  0  0  0  0  0  0
   -3.4890   -2.8510    2.5390 O   0  0  0  0  0  0  0  0  0  0  0  0
    1.3890    2.2590   -0.9240 C   0  0  0  0  0  0  0  0  0  0  0  0
   -2.0940   -0.9940    2.7090 C   0  0  0  0  0  0  0  0  0  0  0  0
   -1.9130   -0.5350   -1.4330 O   0  0  0  0  0  0  0  0  0  0  0  0
    2.7510   -2.6760   -0.9910 C   0  0  0  0  0  0  0  0  0  0  0  0
    2.5980   -2.1460    0.2890 C   0  0  0  0  0  0  0  0  0  0  0  0
    2.2580   -1.9820   -2.0950 C   0  0  0  0  0  0  0  0  0  0  0  0
    3.3670   -3.8670   -1.2920 O   0  0  0  0  0  0  0  0  0  0  0  0
   -6.2660   -4.5330    2.9790 C   0  0  0  0  0  0  0  0  0  0  0  0
   -2.8010   -6.1480    2.9610 C   0  0  0  0  0  0  0  0  0  0  0  0
   -4.9600   -6.7190    4.0980 C   0  0  0  0  0  0  0  0  0  0  0  0
    3.8900   -4.6160   -0.2000 C   0  0  0  0  0  0  0  0  0  0  0  0
   -6.3050   -6.4880    4.3880 C   0  0  0  0  0  0  0  0  0  0  0  0
   -6.9560   -5.3950    3.8310 C   0  0  0  0  0  0  0  0  0  0  0  0
   -0.8150    0.7270    2.8090 H   0  0  0  0  0  0  0  0  0  0  0  0
   -3.2430   -2.4140   -0.1530 H   0  0  0  0  0  0  0  0  0  0  0  0
   -0.6950    4.5620    0.0540 H   0  0  0  0  0  0  0  0  0  0  0  0
   -4.9500   -3.2610    1.1310 H   0  0  0  0  0  0  0  0  0  0  0  0
   -3.5260   -4.3280    1.0900 H   0  0  0  0  0  0  0  0  0  0  0  0
    1.2330   -0.2250   -2.7810 H   0  0  0  0  0  0  0  0  0  0  0  0
    1.8420   -0.5140    1.4620 H   0  0  0  0  0  0  0  0  0  0  0  0
    2.3250    2.1600   -1.4540 H   0  0  0  0  0  0  0  0  0  0  0  0
   -2.1520   -1.1080    3.7810 H   0  0  0  0  0  0  0  0  0  0  0  0
   -2.4290   -1.1740   -1.9300 H   0  0  0  0  0  0  0  0  0  0  0  0
    2.9790   -2.6840    1.1440 H   0  0  0  0  0  0  0  0  0  0  0  0
    2.3770   -2.3920   -3.0870 H   0  0  0  0  0  0  0  0  0  0  0  0
   -6.7780   -3.6850    2.5480 H   0  0  0  0  0  0  0  0  0  0  0  0
   -2.4040   -5.3880    2.2880 H   0  0  0  0  0  0  0  0  0  0  0  0
   -2.7120   -7.1290    2.4940 H   0  0  0  0  0  0  0  0  0  0  0  0
   -2.2370   -6.1380    3.8940 H   0  0  0  0  0  0  0  0  0  0  0  0
   -4.4600   -7.5710    4.5340 H   0  0  0  0  0  0  0  0  0  0  0  0
    4.3480   -5.5320   -0.5740 H   0  0  0  0  0  0  0  0  0  0  0  0
    3.0830   -4.8680    0.4870 H   0  0  0  0  0  0  0  0  0  0  0  0
    4.6390   -4.0220    0.3230 H   0  0  0  0  0  0  0  0  0  0  0  0
   -6.8390   -7.1580    5.0450 H   0  0  0  0  0  0  0  0  0  0  0  0
   -7.9960   -5.2130    4.0580 H   0  0  0  0  0  0  0  0  0  0  0  0
  1  2  1  0  0  0  0
  1  3  1  0  0  0  0
  1  5  2  0  0  0  0
  2  4  2  0  0  0  0
  2  6  1  0  0  0  0
  3  8  1  0  0  0  0
  3 18  2  0  0  0  0
  4  7  1  0  0  0  0
  4 20  1  0  0  0  0
  5 11  1  0  0  0  0
  6 19  2  0  0  0  0
  6 31  1  0  0  0  0
  7 13  2  0  0  0  0
  7 32  1  0  0  0  0
  8 14  1  0  0  0  0
  8 15  2  0  0  0  0
  9 11  2  0  0  0  0
  9 18  1  0  0  0  0
 10 12  1  0  0  0  0
 10 16  2  0  0  0  0
 10 25  1  0  0  0  0
 11 33  1  0  0  0  0
 12 17  1  0  0  0  0
 12 34  1  0  0  0  0
 12 35  1  0  0  0  0
 13 17  1  0  0  0  0
 13 19  1  0  0  0  0
 14 23  2  0  0  0  0
 14 36  1  0  0  0  0
 15 22  1  0  0  0  0
 15 37  1  0  0  0  0
 16 26  1  0  0  0  0
 16 27  1  0  0  0  0
 18 38  1  0  0  0  0
 19 39  1  0  0  0  0
 20 40  1  0  0  0  0
 21 22  2  0  0  0  0
 21 23  1  0  0  0  0
 21 24  1  0  0  0  0
 22 41  1  0  0  0  0
 23 42  1  0  0  0  0
 24 28  1  0  0  0  0
 25 30  2  0  0  0  0
 25 43  1  0  0  0  0
 26 44  1  0  0  0  0
 26 45  1  0  0  0  0
 26 46  1  0  0  0  0
 27 29  2  0  0  0  0
 27 47  1  0  0  0  0
 28 48  1  0  0  0  0
 28 49  1  0  0  0  0
 28 50  1  0  0  0  0
 29 30  1  0  0  0  0
 29 51  1  0  0  0  0
 30 52  1  0  0  0  0
M  END
>  <$CLUSTER>
561

>  <INDEX>
368015

$$$$
InterBioScreen STOCK5S-53636
  MOE2020           3D

 48 52  0  0  0  0  0  0  0  0999 V2000
   -0.7550    0.6220   -0.1290 C   0  0  0  0  0  0  0  0  0  0  0  0
   -0.9890   -0.6900    0.2150 C   0  0  0  0  0  0  0  0  0  0  0  0
    1.1120   -0.5410    0.0840 C   0  0  0  0  0  0  0  0  0  0  0  0
   -3.0720    1.0440   -0.1530 N   0  0  0  0  0  0  0  0  0  0  0  0
    0.5970    0.7000   -0.2010 N   0  0  0  0  0  0  0  0  0  0  0  0
    0.1750   -1.4190    0.3530 N   0  0  0  0  0  0  0  0  0  0  0  0
   -2.2760   -1.1760    0.3940 N   0  0  0  0  0  0  0  0  0  0  0  0
   -3.3830   -0.3110    0.2190 C   0  0  0  0  0  0  0  0  0  0  0  0
   -1.7750    1.5960   -0.3340 C   0  0  0  0  0  0  0  0  0  0  0  0
    2.4780   -0.4310    0.0100 N   0  0  0  0  0  0  0  0  0  0  0  0
    1.6010    1.6010   -0.4680 C   0  0  0  0  0  0  0  0  0  0  0  0
    2.7680    0.9240   -0.3410 C   0  0  0  0  0  0  0  0  0  0  0  0
   -4.2070    1.9530   -0.3530 C   0  0  0  0  0  0  0  0  0  0  0  0
    3.3790   -1.5010    0.2480 C   0  0  0  0  0  0  0  0  0  0  0  0
   -4.5480   -0.6940    0.3800 O   0  0  0  0  0  0  0  0  0  0  0  0
   -1.5440    2.7670   -0.6250 O   0  0  0  0  0  0  0  0  0  0  0  0
   -2.4790   -2.5720    0.7640 C   0  0  0  0  0  0  0  0  0  0  0  0
    4.6350   -1.3020    0.8450 C   0  0  0  0  0  0  0  0  0  0  0  0
    3.0300   -2.8240   -0.0890 C   0  0  0  0  0  0  0  0  0  0  0  0
    5.1440   -3.6640    0.7260 C   0  0  0  0  0  0  0  0  0  0  0  0
    4.1130    1.4820   -0.6400 C   0  0  0  0  0  0  0  0  0  0  0  0
   -4.5980    2.6460    0.9440 C   0  0  0  0  0  0  0  0  0  0  0  0
    5.5080   -2.3700    1.0800 C   0  0  0  0  0  0  0  0  0  0  0  0
    3.9030   -3.8920    0.1430 C   0  0  0  0  0  0  0  0  0  0  0  0
    6.0360   -4.6210    0.9780 F   0  0  0  0  0  0  0  0  0  0  0  0
   -4.1660    3.9520    1.2100 C   0  0  0  0  0  0  0  0  0  0  0  0
   -5.3880    1.9810    1.8920 C   0  0  0  0  0  0  0  0  0  0  0  0
   -5.7570    2.6200    3.0780 C   0  0  0  0  0  0  0  0  0  0  0  0
   -4.5350    4.5900    2.3980 C   0  0  0  0  0  0  0  0  0  0  0  0
   -5.3330    3.9250    3.3300 C   0  0  0  0  0  0  0  0  0  0  0  0
    1.4830    2.6430   -0.7280 H   0  0  0  0  0  0  0  0  0  0  0  0
   -5.0590    1.3810   -0.7200 H   0  0  0  0  0  0  0  0  0  0  0  0
   -3.9310    2.7080   -1.0890 H   0  0  0  0  0  0  0  0  0  0  0  0
   -1.5130   -3.0690    0.8500 H   0  0  0  0  0  0  0  0  0  0  0  0
   -3.0760   -3.0680   -0.0020 H   0  0  0  0  0  0  0  0  0  0  0  0
   -3.0000   -2.6220    1.7200 H   0  0  0  0  0  0  0  0  0  0  0  0
    4.9330   -0.3030    1.1290 H   0  0  0  0  0  0  0  0  0  0  0  0
    2.0660   -3.0180   -0.5370 H   0  0  0  0  0  0  0  0  0  0  0  0
    4.8720    0.7220   -0.4510 H   0  0  0  0  0  0  0  0  0  0  0  0
    4.2980    2.3460   -0.0020 H   0  0  0  0  0  0  0  0  0  0  0  0
    4.1560    1.7860   -1.6860 H   0  0  0  0  0  0  0  0  0  0  0  0
    6.4690   -2.1880    1.5380 H   0  0  0  0  0  0  0  0  0  0  0  0
    3.6120   -4.8950   -0.1310 H   0  0  0  0  0  0  0  0  0  0  0  0
   -3.5450    4.4690    0.4930 H   0  0  0  0  0  0  0  0  0  0  0  0
   -5.7130    0.9680    1.7040 H   0  0  0  0  0  0  0  0  0  0  0  0
   -6.3710    2.1030    3.8010 H   0  0  0  0  0  0  0  0  0  0  0  0
   -4.2020    5.5980    2.5950 H   0  0  0  0  0  0  0  0  0  0  0  0
   -5.6220    4.4200    4.2450 H   0  0  0  0  0  0  0  0  0  0  0  0
  1  2  2  0  0  0  0
  1  5  1  0  0  0  0
  1  9  1  0  0  0  0
  2  6  1  0  0  0  0
  2  7  1  0  0  0  0
  3  5  1  0  0  0  0
  3  6  2  0  0  0  0
  3 10  1  0  0  0  0
  4  8  1  0  0  0  0
  4  9  1  0  0  0  0
  4 13  1  0  0  0  0
  5 11  1  0  0  0  0
  7  8  1  0  0  0  0
  7 17  1  0  0  0  0
  8 15  2  0  0  0  0
  9 16  2  0  0  0  0
 10 12  1  0  0  0  0
 10 14  1  0  0  0  0
 11 12  2  0  0  0  0
 11 31  1  0  0  0  0
 12 21  1  0  0  0  0
 13 22  1  0  0  0  0
 13 32  1  0  0  0  0
 13 33  1  0  0  0  0
 14 18  2  0  0  0  0
 14 19  1  0  0  0  0
 17 34  1  0  0  0  0
 17 35  1  0  0  0  0
 17 36  1  0  0  0  0
 18 23  1  0  0  0  0
 18 37  1  0  0  0  0
 19 24  2  0  0  0  0
 19 38  1  0  0  0  0
 20 23  2  0  0  0  0
 20 24  1  0  0  0  0
 20 25  1  0  0  0  0
 21 39  1  0  0  0  0
 21 40  1  0  0  0  0
 21 41  1  0  0  0  0
 22 26  1  0  0  0  0
 22 27  2  0  0  0  0
 23 42  1  0  0  0  0
 24 43  1  0  0  0  0
 26 29  2  0  0  0  0
 26 44  1  0  0  0  0
 27 28  1  0  0  0  0
 27 45  1  0  0  0  0
 28 30  2  0  0  0  0
 28 46  1  0  0  0  0
 29 30  1  0  0  0  0
 29 47  1  0  0  0  0
 30 48  1  0  0  0  0
M  END
>  <$CLUSTER>
562

>  <INDEX>
379462

$$$$
InterBioScreen STOCK5S-13559
  MOE2020           3D

 39 41  0  0  0  0  0  0  0  0999 V2000
    1.4240   -0.4240   -0.7690 S   0  0  0  0  0  0  0  0  0  0  0  0
   -0.2240   -0.4330   -0.3160 C   0  0  0  0  0  0  0  0  0  0  0  0
    1.2360   -2.0680   -1.2070 C   0  0  0  0  0  0  0  0  0  0  0  0
    0.0280   -2.5490   -1.0170 N   0  0  0  0  0  0  0  0  0  0  0  0
   -0.8630    0.6830    0.1920 N   0  0  0  0  0  0  0  0  0  0  0  0
   -0.8240   -1.5920   -0.4960 N   0  0  0  0  0  0  0  0  0  0  0  0
   -0.3020    1.9340    0.4100 C   0  0  0  0  0  0  0  0  0  0  0  0
   -1.3220    2.8910    0.9770 C   0  0  0  0  0  0  0  0  0  0  0  0
   -2.4130    2.5240    1.7300 C   0  0  0  0  0  0  0  0  0  0  0  0
   -3.2890    3.4850    2.2390 C   0  0  0  0  0  0  0  0  0  0  0  0
    2.3600   -2.8810   -1.7610 C   0  0  0  0  0  0  0  0  0  0  0  0
    0.8500    2.3010    0.2020 O   0  0  0  0  0  0  0  0  0  0  0  0
   -3.0580    4.8400    2.0050 C   0  0  0  0  0  0  0  0  0  0  0  0
   -1.0670    4.2810    0.7550 C   0  0  0  0  0  0  0  0  0  0  0  0
   -1.9460    5.2370    1.2650 C   0  0  0  0  0  0  0  0  0  0  0  0
    3.6560   -2.3740   -1.9550 C   0  0  0  0  0  0  0  0  0  0  0  0
    2.1240   -4.2240   -2.1100 C   0  0  0  0  0  0  0  0  0  0  0  0
    4.4170   -4.5040   -2.8160 C   0  0  0  0  0  0  0  0  0  0  0  0
   -4.4170    3.1880    2.9890 O   0  0  0  0  0  0  0  0  0  0  0  0
    4.6740   -3.1800   -2.4780 C   0  0  0  0  0  0  0  0  0  0  0  0
    3.1420   -5.0270   -2.6320 C   0  0  0  0  0  0  0  0  0  0  0  0
    5.6670   -5.4680   -3.4500 Cl  0  0  0  0  0  0  0  0  0  0  0  0
   -3.9690    5.7170    2.5550 O   0  0  0  0  0  0  0  0  0  0  0  0
   -4.6920    1.8160    3.2460 C   0  0  0  0  0  0  0  0  0  0  0  0
   -3.7550    7.1060    2.3370 C   0  0  0  0  0  0  0  0  0  0  0  0
   -1.8390    0.5770    0.4290 H   0  0  0  0  0  0  0  0  0  0  0  0
   -2.5950    1.4780    1.9300 H   0  0  0  0  0  0  0  0  0  0  0  0
   -0.1970    4.5890    0.1940 H   0  0  0  0  0  0  0  0  0  0  0  0
   -1.7640    6.2860    1.0860 H   0  0  0  0  0  0  0  0  0  0  0  0
    3.8700   -1.3470   -1.6970 H   0  0  0  0  0  0  0  0  0  0  0  0
    1.1380   -4.6420   -1.9720 H   0  0  0  0  0  0  0  0  0  0  0  0
    5.6640   -2.7720   -2.6200 H   0  0  0  0  0  0  0  0  0  0  0  0
    2.9380   -6.0550   -2.8930 H   0  0  0  0  0  0  0  0  0  0  0  0
   -5.6010    1.7330    3.8420 H   0  0  0  0  0  0  0  0  0  0  0  0
   -3.8580    1.3740    3.7920 H   0  0  0  0  0  0  0  0  0  0  0  0
   -4.8270    1.2890    2.3010 H   0  0  0  0  0  0  0  0  0  0  0  0
   -4.5450    7.6760    2.8250 H   0  0  0  0  0  0  0  0  0  0  0  0
   -3.7660    7.3120    1.2670 H   0  0  0  0  0  0  0  0  0  0  0  0
   -2.7890    7.3940    2.7520 H   0  0  0  0  0  0  0  0  0  0  0  0
  1  2  1  0  0  0  0
  1  3  1  0  0  0  0
  2  5  1  0  0  0  0
  2  6  2  0  0  0  0
  3  4  2  0  0  0  0
  3 11  1  0  0  0  0
  4  6  1  0  0  0  0
  5  7  1  0  0  0  0
  5 26  1  0  0  0  0
  7  8  1  0  0  0  0
  7 12  2  0  0  0  0
  8  9  1  0  0  0  0
  8 14  2  0  0  0  0
  9 10  2  0  0  0  0
  9 27  1  0  0  0  0
 10 13  1  0  0  0  0
 10 19  1  0  0  0  0
 11 16  2  0  0  0  0
 11 17  1  0  0  0  0
 13 15  2  0  0  0  0
 13 23  1  0  0  0  0
 14 15  1  0  0  0  0
 14 28  1  0  0  0  0
 15 29  1  0  0  0  0
 16 20  1  0  0  0  0
 16 30  1  0  0  0  0
 17 21  2  0  0  0  0
 17 31  1  0  0  0  0
 18 20  2  0  0  0  0
 18 21  1  0  0  0  0
 18 22  1  0  0  0  0
 19 24  1  0  0  0  0
 20 32  1  0  0  0  0
 21 33  1  0  0  0  0
 23 25  1  0  0  0  0
 24 34  1  0  0  0  0
 24 35  1  0  0  0  0
 24 36  1  0  0  0  0
 25 37  1  0  0  0  0
 25 38  1  0  0  0  0
 25 39  1  0  0  0  0
M  END
>  <$CLUSTER>
563

>  <INDEX>
366816

$$$$
InterBioScreen STOCK4S-15435
  MOE2020           3D

 36 39  0  0  0  0  0  0  0  0999 V2000
    0.7540    1.4130    0.4230 N   0  0  0  0  0  0  0  0  0  0  0  0
    1.9210    1.4090   -0.2720 N   0  0  0  0  0  0  0  0  0  0  0  0
   -0.1940    0.4000    0.4460 C   0  0  0  0  0  0  0  0  0  0  0  0
    0.2640    2.3630    1.2770 C   0  0  0  0  0  0  0  0  0  0  0  0
   -1.1520    0.7400    1.2950 N   0  0  0  0  0  0  0  0  0  0  0  0
   -0.8640    1.9790    1.8140 N   0  0  0  0  0  0  0  0  0  0  0  0
    2.5630    2.5330   -0.3810 C   0  0  0  0  0  0  0  0  0  0  0  0
    1.1480    3.7970    1.6050 S   0  0  0  0  0  0  0  0  0  0  0  0
   -0.1390   -0.8530   -0.3090 C   0  0  0  0  0  0  0  0  0  0  0  0
    2.0660    3.8910    0.0630 C   0  0  0  0  0  0  0  0  0  0  0  0
    3.8800    2.5070   -1.1220 C   0  0  0  0  0  0  0  0  0  0  0  0
    0.3370   -0.9070   -1.6270 C   0  0  0  0  0  0  0  0  0  0  0  0
   -0.6070   -2.0350    0.2840 C   0  0  0  0  0  0  0  0  0  0  0  0
    4.2750    1.3430   -1.7990 C   0  0  0  0  0  0  0  0  0  0  0  0
    4.7600    3.6040   -1.0990 C   0  0  0  0  0  0  0  0  0  0  0  0
    6.3590    2.3820   -2.4450 C   0  0  0  0  0  0  0  0  0  0  0  0
    5.9890    3.5400   -1.7630 C   0  0  0  0  0  0  0  0  0  0  0  0
    5.5040    1.2820   -2.4620 C   0  0  0  0  0  0  0  0  0  0  0  0
    0.3640   -2.1170   -2.3250 C   0  0  0  0  0  0  0  0  0  0  0  0
   -0.5780   -3.2440   -0.4150 C   0  0  0  0  0  0  0  0  0  0  0  0
   -0.0900   -3.2860   -1.7180 C   0  0  0  0  0  0  0  0  0  0  0  0
    7.8570    2.3250   -3.2500 Cl  0  0  0  0  0  0  0  0  0  0  0  0
   -0.0510   -4.5780   -2.4650 C   0  0  0  0  0  0  0  0  0  0  0  0
    1.4150    4.2980   -0.7110 H   0  0  0  0  0  0  0  0  0  0  0  0
    2.9220    4.5510    0.2020 H   0  0  0  0  0  0  0  0  0  0  0  0
    0.6860   -0.0050   -2.1070 H   0  0  0  0  0  0  0  0  0  0  0  0
   -0.9940   -2.0100    1.2920 H   0  0  0  0  0  0  0  0  0  0  0  0
    3.6210    0.4830   -1.8080 H   0  0  0  0  0  0  0  0  0  0  0  0
    4.4850    4.5020   -0.5650 H   0  0  0  0  0  0  0  0  0  0  0  0
    6.6540    4.3910   -1.7470 H   0  0  0  0  0  0  0  0  0  0  0  0
    5.7910    0.3830   -2.9870 H   0  0  0  0  0  0  0  0  0  0  0  0
    0.7380   -2.1460   -3.3380 H   0  0  0  0  0  0  0  0  0  0  0  0
   -0.9350   -4.1480    0.0560 H   0  0  0  0  0  0  0  0  0  0  0  0
    0.3600   -4.4100   -3.4600 H   0  0  0  0  0  0  0  0  0  0  0  0
   -1.0610   -4.9780   -2.5520 H   0  0  0  0  0  0  0  0  0  0  0  0
    0.5770   -5.2890   -1.9280 H   0  0  0  0  0  0  0  0  0  0  0  0
  1  2  1  0  0  0  0
  1  3  1  0  0  0  0
  1  4  1  0  0  0  0
  2  7  2  0  0  0  0
  3  5  2  0  0  0  0
  3  9  1  0  0  0  0
  4  6  2  0  0  0  0
  4  8  1  0  0  0  0
  5  6  1  0  0  0  0
  7 10  1  0  0  0  0
  7 11  1  0  0  0  0
  8 10  1  0  0  0  0
  9 12  2  0  0  0  0
  9 13  1  0  0  0  0
 10 24  1  0  0  0  0
 10 25  1  0  0  0  0
 11 14  1  0  0  0  0
 11 15  2  0  0  0  0
 12 19  1  0  0  0  0
 12 26  1  0  0  0  0
 13 20  2  0  0  0  0
 13 27  1  0  0  0  0
 14 18  2  0  0  0  0
 14 28  1  0  0  0  0
 15 17  1  0  0  0  0
 15 29  1  0  0  0  0
 16 17  2  0  0  0  0
 16 18  1  0  0  0  0
 16 22  1  0  0  0  0
 17 30  1  0  0  0  0
 18 31  1  0  0  0  0
 19 21  2  0  0  0  0
 19 32  1  0  0  0  0
 20 21  1  0  0  0  0
 20 33  1  0  0  0  0
 21 23  1  0  0  0  0
 23 34  1  0  0  0  0
 23 35  1  0  0  0  0
 23 36  1  0  0  0  0
M  END
>  <$CLUSTER>
564

>  <INDEX>
350740

$$$$
Pharmeks PHAR044641
  MOE2020           3D

 47 51  0  0  0  0  0  0  0  0999 V2000
    1.1740    0.0490    0.3380 C   0  0  0  0  0  0  0  0  0  0  0  0
    0.5130   -1.0280    0.9630 C   0  0  0  0  0  0  0  0  0  0  0  0
   -0.8990   -1.3060    0.7110 C   0  0  0  0  0  0  0  0  0  0  0  0
    0.4560    0.8680   -0.5500 C   0  0  0  0  0  0  0  0  0  0  0  0
   -1.7000   -0.5290   -0.1760 C   0  0  0  0  0  0  0  0  0  0  0  0
   -0.9320    0.5380   -0.7640 C   0  0  0  0  0  0  0  0  0  0  0  0
    2.5890    0.1560    0.5620 N   0  3  0  0  0  0  0  0  0  0  0  0
   -3.0460   -0.7310   -0.4670 N   0  0  0  0  0  0  0  0  0  0  0  0
    0.9800   -1.9490    1.8180 N   0  0  0  0  0  0  0  0  0  0  0  0
   -1.2250   -2.3810    1.4460 N   0  0  0  0  0  0  0  0  0  0  0  0
   -0.0860   -2.7680    2.1150 O   0  0  0  0  0  0  0  0  0  0  0  0
    0.9990    1.9710   -1.2060 N   0  0  0  0  0  0  0  0  0  0  0  0
   -3.8070   -1.7910    0.1800 C   0  0  0  0  0  0  0  0  0  0  0  0
   -5.1370   -1.2430    0.7010 C   0  0  0  0  0  0  0  0  0  0  0  0
    2.9550    0.5370    1.6810 O   0  5  0  0  0  0  0  0  0  0  0  0
    3.3300   -0.1510   -0.3810 O   0  0  0  0  0  0  0  0  0  0  0  0
   -3.7410    0.1130   -1.4320 C   0  0  0  0  0  0  0  0  0  0  0  0
   -5.6530   -0.0070    0.2720 C   0  0  0  0  0  0  0  0  0  0  0  0
   -4.8630    0.8550   -0.6790 C   0  0  0  0  0  0  0  0  0  0  0  0
    1.0640    4.6420   -2.0350 O   0  0  0  0  0  0  0  0  0  0  0  0
    1.9410    2.8690   -0.5560 C   0  0  0  0  0  0  0  0  0  0  0  0
    0.6060    2.2760   -2.5750 C   0  0  0  0  0  0  0  0  0  0  0  0
   -5.8740   -2.0240    1.6030 C   0  0  0  0  0  0  0  0  0  0  0  0
    0.1060    3.7370   -2.5880 C   0  0  0  0  0  0  0  0  0  0  0  0
    1.3670    4.2980   -0.6820 C   0  0  0  0  0  0  0  0  0  0  0  0
   -6.8780    0.4460    0.7790 C   0  0  0  0  0  0  0  0  0  0  0  0
   -7.0970   -1.5680    2.0940 C   0  0  0  0  0  0  0  0  0  0  0  0
   -7.5970   -0.3340    1.6850 C   0  0  0  0  0  0  0  0  0  0  0  0
   -1.4650    1.1740   -1.4550 H   0  0  0  0  0  0  0  0  0  0  0  0
   -3.2300   -2.1910    1.0140 H   0  0  0  0  0  0  0  0  0  0  0  0
   -4.0020   -2.5850   -0.5400 H   0  0  0  0  0  0  0  0  0  0  0  0
   -4.1680   -0.5020   -2.2240 H   0  0  0  0  0  0  0  0  0  0  0  0
   -3.0460    0.8320   -1.8660 H   0  0  0  0  0  0  0  0  0  0  0  0
   -5.5520    1.2690   -1.4160 H   0  0  0  0  0  0  0  0  0  0  0  0
   -4.4110    1.6660   -0.1080 H   0  0  0  0  0  0  0  0  0  0  0  0
    2.9120    2.8120   -1.0470 H   0  0  0  0  0  0  0  0  0  0  0  0
    2.0490    2.6010    0.4950 H   0  0  0  0  0  0  0  0  0  0  0  0
   -0.1920    1.6050   -2.8940 H   0  0  0  0  0  0  0  0  0  0  0  0
    1.4610    2.1670   -3.2430 H   0  0  0  0  0  0  0  0  0  0  0  0
   -5.4920   -2.9840    1.9190 H   0  0  0  0  0  0  0  0  0  0  0  0
   -0.0980    4.0290   -3.6180 H   0  0  0  0  0  0  0  0  0  0  0  0
   -0.8120    3.7990   -2.0040 H   0  0  0  0  0  0  0  0  0  0  0  0
    0.4540    4.3620   -0.0910 H   0  0  0  0  0  0  0  0  0  0  0  0
    2.1000    5.0060   -0.2960 H   0  0  0  0  0  0  0  0  0  0  0  0
   -7.2680    1.4040    0.4670 H   0  0  0  0  0  0  0  0  0  0  0  0
   -7.6570   -2.1720    2.7920 H   0  0  0  0  0  0  0  0  0  0  0  0
   -8.5420    0.0190    2.0700 H   0  0  0  0  0  0  0  0  0  0  0  0
  1  2  1  0  0  0  0
  1  4  2  0  0  0  0
  1  7  1  0  0  0  0
  2  3  1  0  0  0  0
  2  9  2  0  0  0  0
  3  5  1  0  0  0  0
  3 10  2  0  0  0  0
  4  6  1  0  0  0  0
  4 12  1  0  0  0  0
  5  6  2  0  0  0  0
  5  8  1  0  0  0  0
  6 29  1  0  0  0  0
  7 15  1  0  0  0  0
  7 16  2  0  0  0  0
  8 13  1  0  0  0  0
  8 17  1  0  0  0  0
  9 11  1  0  0  0  0
 10 11  1  0  0  0  0
 12 21  1  0  0  0  0
 12 22  1  0  0  0  0
 13 14  1  0  0  0  0
 13 30  1  0  0  0  0
 13 31  1  0  0  0  0
 14 18  2  0  0  0  0
 14 23  1  0  0  0  0
 17 19  1  0  0  0  0
 17 32  1  0  0  0  0
 17 33  1  0  0  0  0
 18 19  1  0  0  0  0
 18 26  1  0  0  0  0
 19 34  1  0  0  0  0
 19 35  1  0  0  0  0
 20 24  1  0  0  0  0
 20 25  1  0  0  0  0
 21 25  1  0  0  0  0
 21 36  1  0  0  0  0
 21 37  1  0  0  0  0
 22 24  1  0  0  0  0
 22 38  1  0  0  0  0
 22 39  1  0  0  0  0
 23 27  2  0  0  0  0
 23 40  1  0  0  0  0
 24 41  1  0  0  0  0
 24 42  1  0  0  0  0
 25 43  1  0  0  0  0
 25 44  1  0  0  0  0
 26 28  2  0  0  0  0
 26 45  1  0  0  0  0
 27 28  1  0  0  0  0
 27 46  1  0  0  0  0
 28 47  1  0  0  0  0
M  CHG  1   7   1
M  CHG  1  15  -1
M  END
>  <$CLUSTER>
565

>  <INDEX>
597841

$$$$
InterBioScreen STOCK5S-22284
  MOE2020           3D

 48 52  0  0  1  0  0  0  0  0999 V2000
    0.9640    1.1400    0.7960 C   0  0  0  0  0  0  0  0  0  0  0  0
    1.2700    1.9590   -0.2110 C   0  0  0  0  0  0  0  0  0  0  0  0
   -0.7500    0.9910   -0.6720 N   0  0  0  0  0  0  0  0  0  0  0  0
    0.1760    1.8870   -1.1940 C   0  0  0  0  0  0  0  0  0  0  0  0
   -0.3260    0.4200    0.6100 C   0  0  3  0  0  0  0  0  0  0  0  0
    1.8850    1.0670    1.9330 C   0  0  0  0  0  0  0  0  0  0  0  0
    2.3780    2.7500   -0.3160 O   0  0  0  0  0  0  0  0  0  0  0  0
    3.1010    1.9090    1.8260 C   0  0  0  0  0  0  0  0  0  0  0  0
    3.2640    2.6740    0.7400 C   0  0  0  0  0  0  0  0  0  0  0  0
   -0.1930   -1.0870    0.5910 C   0  0  0  0  0  0  0  0  0  0  0  0
   -2.0280    0.6710   -1.2990 C   0  0  0  0  0  0  0  0  0  0  0  0
    0.1370    2.5260   -2.2320 O   0  0  0  0  0  0  0  0  0  0  0  0
    1.6740    0.3650    2.9120 O   0  0  0  0  0  0  0  0  0  0  0  0
    4.0420    1.9020    2.8730 C   0  0  0  0  0  0  0  0  0  0  0  0
    0.5730   -1.7530   -0.3800 C   0  0  0  0  0  0  0  0  0  0  0  0
    4.4190    3.5010    0.6070 C   0  0  0  0  0  0  0  0  0  0  0  0
    5.1790    2.7040    2.7600 C   0  0  0  0  0  0  0  0  0  0  0  0
   -3.1880    1.3600   -0.6020 C   0  0  0  0  0  0  0  0  0  0  0  0
    0.6820   -3.1450   -0.3690 C   0  0  0  0  0  0  0  0  0  0  0  0
    5.3680    3.5020    1.6300 C   0  0  0  0  0  0  0  0  0  0  0  0
    6.0400    2.6500    3.7790 F   0  0  0  0  0  0  0  0  0  0  0  0
    1.3900   -3.8380   -1.2630 F   0  0  0  0  0  0  0  0  0  0  0  0
   -0.8400   -1.8510    1.5740 C   0  0  0  0  0  0  0  0  0  0  0  0
   -4.5180    1.0220   -1.2420 C   0  0  0  0  0  0  0  0  0  0  0  0
   -0.7290   -3.2420    1.5830 C   0  0  0  0  0  0  0  0  0  0  0  0
    0.0310   -3.8890    0.6120 C   0  0  0  0  0  0  0  0  0  0  0  0
   -5.2490   -0.0920   -0.8130 C   0  0  0  0  0  0  0  0  0  0  0  0
   -5.0160    1.7990   -2.2950 C   0  0  0  0  0  0  0  0  0  0  0  0
   -6.2320    1.4760   -2.8970 C   0  0  0  0  0  0  0  0  0  0  0  0
   -6.4650   -0.4140   -1.4170 C   0  0  0  0  0  0  0  0  0  0  0  0
   -6.9560    0.3710   -2.4580 C   0  0  0  0  0  0  0  0  0  0  0  0
   -1.0370    0.5520    1.4250 H   0  0  0  0  0  0  0  0  0  0  0  0
   -2.1810   -0.4070   -1.2560 H   0  0  0  0  0  0  0  0  0  0  0  0
   -2.0010    0.9930   -2.3400 H   0  0  0  0  0  0  0  0  0  0  0  0
    3.8870    1.2870    3.7480 H   0  0  0  0  0  0  0  0  0  0  0  0
    1.0830   -1.1830   -1.1430 H   0  0  0  0  0  0  0  0  0  0  0  0
    4.5560    4.1160   -0.2700 H   0  0  0  0  0  0  0  0  0  0  0  0
   -3.0380    2.4380   -0.6520 H   0  0  0  0  0  0  0  0  0  0  0  0
   -3.2090    1.0440    0.4410 H   0  0  0  0  0  0  0  0  0  0  0  0
    6.2490    4.1210    1.5480 H   0  0  0  0  0  0  0  0  0  0  0  0
   -1.4300   -1.3570    2.3320 H   0  0  0  0  0  0  0  0  0  0  0  0
   -1.2340   -3.8180    2.3450 H   0  0  0  0  0  0  0  0  0  0  0  0
    0.1150   -4.9660    0.6200 H   0  0  0  0  0  0  0  0  0  0  0  0
   -4.8700   -0.7060   -0.0100 H   0  0  0  0  0  0  0  0  0  0  0  0
   -4.4550    2.6540   -2.6430 H   0  0  0  0  0  0  0  0  0  0  0  0
   -6.6120    2.0840   -3.7050 H   0  0  0  0  0  0  0  0  0  0  0  0
   -7.0260   -1.2720   -1.0770 H   0  0  0  0  0  0  0  0  0  0  0  0
   -7.8980    0.1220   -2.9240 H   0  0  0  0  0  0  0  0  0  0  0  0
  1  2  2  0  0  0  0
  1  5  1  0  0  0  0
  1  6  1  0  0  0  0
  2  4  1  0  0  0  0
  2  7  1  0  0  0  0
  3  4  1  0  0  0  0
  3  5  1  0  0  0  0
  3 11  1  0  0  0  0
  4 12  2  0  0  0  0
  5 10  1  0  0  0  0
  5 32  1  0  0  0  0
  6  8  1  0  0  0  0
  6 13  2  0  0  0  0
  7  9  1  0  0  0  0
  8  9  2  0  0  0  0
  8 14  1  0  0  0  0
  9 16  1  0  0  0  0
 10 15  2  0  0  0  0
 10 23  1  0  0  0  0
 11 18  1  0  0  0  0
 11 33  1  0  0  0  0
 11 34  1  0  0  0  0
 14 17  2  0  0  0  0
 14 35  1  0  0  0  0
 15 19  1  0  0  0  0
 15 36  1  0  0  0  0
 16 20  2  0  0  0  0
 16 37  1  0  0  0  0
 17 20  1  0  0  0  0
 17 21  1  0  0  0  0
 18 24  1  0  0  0  0
 18 38  1  0  0  0  0
 18 39  1  0  0  0  0
 19 22  1  0  0  0  0
 19 26  2  0  0  0  0
 20 40  1  0  0  0  0
 23 25  2  0  0  0  0
 23 41  1  0  0  0  0
 24 27  1  0  0  0  0
 24 28  2  0  0  0  0
 25 26  1  0  0  0  0
 25 42  1  0  0  0  0
 26 43  1  0  0  0  0
 27 30  2  0  0  0  0
 27 44  1  0  0  0  0
 28 29  1  0  0  0  0
 28 45  1  0  0  0  0
 29 31  2  0  0  0  0
 29 46  1  0  0  0  0
 30 31  1  0  0  0  0
 30 47  1  0  0  0  0
 31 48  1  0  0  0  0
M  END
>  <$CLUSTER>
566

>  <INDEX>
368799

$$$$
InterBioScreen STOCK5S-22526
  MOE2020           3D

 39 41  0  0  0  0  0  0  0  0999 V2000
   -5.4180   -8.7760    2.1240 N   0  0  0  0  0  0  0  0  0  0  0  0
   -5.5040  -10.0450    1.6320 C   0  0  0  0  0  0  0  0  0  0  0  0
    0.3620    0.6510   -0.0820 N   0  3  0  0  0  0  0  0  0  0  0  0
   -5.4570  -10.1580    0.3020 N   0  0  0  0  0  0  0  0  0  0  0  0
   -5.3280   -8.0910    1.0250 C   0  0  0  0  0  0  0  0  0  0  0  0
   -5.3280   -8.8290   -0.1160 O   0  0  0  0  0  0  0  0  0  0  0  0
   -0.2920   -0.6470    0.0810 C   0  0  0  0  0  0  0  0  0  0  0  0
   -5.6320  -11.2020    2.5420 C   0  0  0  0  0  0  0  0  0  0  0  0
   -3.5240   -4.6830    0.6000 C   0  0  0  0  0  0  0  0  0  0  0  0
    1.6040    0.6970   -0.1070 O   0  5  0  0  0  0  0  0  0  0  0  0
   -0.3660    1.6520   -0.1880 O   0  0  0  0  0  0  0  0  0  0  0  0
   -2.1760   -4.3530    0.5400 N   0  0  0  0  0  0  0  0  0  0  0  0
   -4.4910   -3.9320    0.5260 O   0  0  0  0  0  0  0  0  0  0  0  0
    0.4780   -1.7400    0.1970 C   0  0  0  0  0  0  0  0  0  0  0  0
   -1.7850   -0.6130    0.1000 C   0  0  0  0  0  0  0  0  0  0  0  0
   -5.6760  -11.0080    3.9310 C   0  0  0  0  0  0  0  0  0  0  0  0
   -5.7150  -12.5100    2.0420 C   0  0  0  0  0  0  0  0  0  0  0  0
   -1.6120   -3.0650    0.3830 C   0  0  0  0  0  0  0  0  0  0  0  0
   -5.1680   -6.6040    0.8500 C   0  0  0  0  0  0  0  0  0  0  0  0
   -3.7120   -6.1700    0.7750 C   0  0  0  0  0  0  0  0  0  0  0  0
   -5.8800  -13.3910    4.2880 C   0  0  0  0  0  0  0  0  0  0  0  0
   -0.2120   -2.9850    0.3520 C   0  0  0  0  0  0  0  0  0  0  0  0
   -2.3570   -1.8880    0.2560 C   0  0  0  0  0  0  0  0  0  0  0  0
   -5.7980  -12.0970    4.7970 C   0  0  0  0  0  0  0  0  0  0  0  0
   -5.8370  -13.5980    2.9120 C   0  0  0  0  0  0  0  0  0  0  0  0
   -6.0310  -14.7070    5.3570 Cl  0  0  0  0  0  0  0  0  0  0  0  0
   -1.5240   -5.1200    0.6170 H   0  0  0  0  0  0  0  0  0  0  0  0
    1.5560   -1.6840    0.1750 H   0  0  0  0  0  0  0  0  0  0  0  0
   -2.3630    0.2940    0.0040 H   0  0  0  0  0  0  0  0  0  0  0  0
   -5.6150  -10.0080    4.3340 H   0  0  0  0  0  0  0  0  0  0  0  0
   -5.6840  -12.6780    0.9760 H   0  0  0  0  0  0  0  0  0  0  0  0
   -5.6370   -6.1020    1.6960 H   0  0  0  0  0  0  0  0  0  0  0  0
   -5.6670   -6.3070   -0.0720 H   0  0  0  0  0  0  0  0  0  0  0  0
   -3.2160   -6.4720    1.6970 H   0  0  0  0  0  0  0  0  0  0  0  0
   -3.2460   -6.6760   -0.0700 H   0  0  0  0  0  0  0  0  0  0  0  0
    0.3650   -3.8930    0.4480 H   0  0  0  0  0  0  0  0  0  0  0  0
   -3.4340   -1.9630    0.2790 H   0  0  0  0  0  0  0  0  0  0  0  0
   -5.8290  -11.9350    5.8640 H   0  0  0  0  0  0  0  0  0  0  0  0
   -5.8980  -14.6010    2.5160 H   0  0  0  0  0  0  0  0  0  0  0  0
  1  2  1  0  0  0  0
  1  5  2  0  0  0  0
  2  4  2  0  0  0  0
  2  8  1  0  0  0  0
  3  7  1  0  0  0  0
  3 10  1  0  0  0  0
  3 11  2  0  0  0  0
  4  6  1  0  0  0  0
  5  6  1  0  0  0  0
  5 19  1  0  0  0  0
  7 14  2  0  0  0  0
  7 15  1  0  0  0  0
  8 16  2  0  0  0  0
  8 17  1  0  0  0  0
  9 12  1  0  0  0  0
  9 13  2  0  0  0  0
  9 20  1  0  0  0  0
 12 18  1  0  0  0  0
 12 27  1  0  0  0  0
 14 22  1  0  0  0  0
 14 28  1  0  0  0  0
 15 23  2  0  0  0  0
 15 29  1  0  0  0  0
 16 24  1  0  0  0  0
 16 30  1  0  0  0  0
 17 25  2  0  0  0  0
 17 31  1  0  0  0  0
 18 22  2  0  0  0  0
 18 23  1  0  0  0  0
 19 20  1  0  0  0  0
 19 32  1  0  0  0  0
 19 33  1  0  0  0  0
 20 34  1  0  0  0  0
 20 35  1  0  0  0  0
 21 24  2  0  0  0  0
 21 25  1  0  0  0  0
 21 26  1  0  0  0  0
 22 36  1  0  0  0  0
 23 37  1  0  0  0  0
 24 38  1  0  0  0  0
 25 39  1  0  0  0  0
M  CHG  1   3   1
M  CHG  1  10  -1
M  END
>  <$CLUSTER>
567

>  <INDEX>
368855

$$$$
Comgenex CGX-3339469
  MOE2020           3D

 51 55  0  0  0  0  0  0  0  0999 V2000
    0.6100   -0.1350    0.3840 C   0  0  0  0  0  0  0  0  0  0  0  0
    0.1540   -1.3520    0.8690 C   0  0  0  0  0  0  0  0  0  0  0  0
    1.9630    0.2830    0.7270 C   0  0  0  0  0  0  0  0  0  0  0  0
    2.6190   -0.6460    1.5320 N   0  0  0  0  0  0  0  0  0  0  0  0
   -0.3720    0.5310   -0.4090 C   0  0  0  0  0  0  0  0  0  0  0  0
   -1.5280   -0.2200   -0.5060 C   0  0  0  0  0  0  0  0  0  0  0  0
    0.8380   -2.2290    1.6580 N   0  0  0  0  0  0  0  0  0  0  0  0
   -1.4440   -1.6800    0.3580 S   0  0  0  0  0  0  0  0  0  0  0  0
   -2.7890    1.3600   -3.5230 C   0  0  0  0  0  0  0  0  0  0  0  0
   -2.4330    1.2900   -2.2090 N   0  0  0  0  0  0  0  0  0  0  0  0
   -3.5960    0.2080   -4.0660 C   0  0  0  0  0  0  0  0  0  0  0  0
    2.0370   -1.8330    1.9510 C   0  0  0  0  0  0  0  0  0  0  0  0
   -2.7490    0.2080   -1.2580 C   0  0  0  0  0  0  0  0  0  0  0  0
   -0.2640    1.8490   -1.1140 C   0  0  0  0  0  0  0  0  0  0  0  0
    4.0160   -0.3570    1.9770 C   0  0  0  0  0  0  0  0  0  0  0  0
   -1.6450    2.3570   -1.5720 C   0  0  0  0  0  0  0  0  0  0  0  0
   -4.5640    0.4480   -5.0120 C   0  0  0  0  0  0  0  0  0  0  0  0
    2.4670    1.3340    0.3450 O   0  0  0  0  0  0  0  0  0  0  0  0
   -2.4940    2.2950   -4.2710 O   0  0  0  0  0  0  0  0  0  0  0  0
    5.0390   -0.8990    0.9880 C   0  0  0  0  0  0  0  0  0  0  0  0
    5.6280   -0.0490    0.0480 C   0  0  0  0  0  0  0  0  0  0  0  0
   -4.8340    1.6870   -5.4500 F   0  0  0  0  0  0  0  0  0  0  0  0
   -3.3460   -1.0880   -3.6110 C   0  0  0  0  0  0  0  0  0  0  0  0
    6.5770   -0.5460   -0.8500 C   0  0  0  0  0  0  0  0  0  0  0  0
    6.3350   -2.7500    0.1100 C   0  0  0  0  0  0  0  0  0  0  0  0
    5.3850   -2.2550    1.0070 C   0  0  0  0  0  0  0  0  0  0  0  0
   -5.3130   -0.6070   -5.5310 C   0  0  0  0  0  0  0  0  0  0  0  0
    6.9320   -1.8950   -0.8160 C   0  0  0  0  0  0  0  0  0  0  0  0
    7.2130    0.3670   -1.8470 C   0  0  0  0  0  0  0  0  0  0  0  0
   -4.0940   -2.1480   -4.1290 C   0  0  0  0  0  0  0  0  0  0  0  0
   -5.0780   -1.9080   -5.0880 C   0  0  0  0  0  0  0  0  0  0  0  0
    2.6330   -2.4830    2.5740 H   0  0  0  0  0  0  0  0  0  0  0  0
   -3.4970    0.5640   -0.5500 H   0  0  0  0  0  0  0  0  0  0  0  0
   -3.1460   -0.6450   -1.8080 H   0  0  0  0  0  0  0  0  0  0  0  0
    0.3780    1.7330   -1.9870 H   0  0  0  0  0  0  0  0  0  0  0  0
    0.1750    2.5800   -0.4350 H   0  0  0  0  0  0  0  0  0  0  0  0
    4.1820   -0.8220    2.9490 H   0  0  0  0  0  0  0  0  0  0  0  0
    4.1440    0.7220    2.0640 H   0  0  0  0  0  0  0  0  0  0  0  0
   -2.1900    2.7290   -0.7050 H   0  0  0  0  0  0  0  0  0  0  0  0
   -1.5040    3.1670   -2.2870 H   0  0  0  0  0  0  0  0  0  0  0  0
    5.3490    0.9940    0.0150 H   0  0  0  0  0  0  0  0  0  0  0  0
   -2.5840   -1.2690   -2.8680 H   0  0  0  0  0  0  0  0  0  0  0  0
    6.6070   -3.7950    0.1340 H   0  0  0  0  0  0  0  0  0  0  0  0
    4.9160   -2.9210    1.7170 H   0  0  0  0  0  0  0  0  0  0  0  0
   -6.0730   -0.4170   -6.2740 H   0  0  0  0  0  0  0  0  0  0  0  0
    7.6690   -2.2770   -1.5070 H   0  0  0  0  0  0  0  0  0  0  0  0
    6.8140    1.3740   -1.7240 H   0  0  0  0  0  0  0  0  0  0  0  0
    6.9970    0.0120   -2.8550 H   0  0  0  0  0  0  0  0  0  0  0  0
    8.2920    0.3820   -1.6900 H   0  0  0  0  0  0  0  0  0  0  0  0
   -3.9100   -3.1550   -3.7860 H   0  0  0  0  0  0  0  0  0  0  0  0
   -5.6570   -2.7280   -5.4870 H   0  0  0  0  0  0  0  0  0  0  0  0
  1  2  2  0  0  0  0
  1  3  1  0  0  0  0
  1  5  1  0  0  0  0
  2  7  1  0  0  0  0
  2  8  1  0  0  0  0
  3  4  1  0  0  0  0
  3 18  2  0  0  0  0
  4 12  1  0  0  0  0
  4 15  1  0  0  0  0
  5  6  2  0  0  0  0
  5 14  1  0  0  0  0
  6  8  1  0  0  0  0
  6 13  1  0  0  0  0
  7 12  2  0  0  0  0
  9 10  1  0  0  0  0
  9 11  1  0  0  0  0
  9 19  2  0  0  0  0
 10 13  1  0  0  0  0
 10 16  1  0  0  0  0
 11 17  2  0  0  0  0
 11 23  1  0  0  0  0
 12 32  1  0  0  0  0
 13 33  1  0  0  0  0
 13 34  1  0  0  0  0
 14 16  1  0  0  0  0
 14 35  1  0  0  0  0
 14 36  1  0  0  0  0
 15 20  1  0  0  0  0
 15 37  1  0  0  0  0
 15 38  1  0  0  0  0
 16 39  1  0  0  0  0
 16 40  1  0  0  0  0
 17 22  1  0  0  0  0
 17 27  1  0  0  0  0
 20 21  2  0  0  0  0
 20 26  1  0  0  0  0
 21 24  1  0  0  0  0
 21 41  1  0  0  0  0
 23 30  2  0  0  0  0
 23 42  1  0  0  0  0
 24 28  2  0  0  0  0
 24 29  1  0  0  0  0
 25 26  2  0  0  0  0
 25 28  1  0  0  0  0
 25 43  1  0  0  0  0
 26 44  1  0  0  0  0
 27 31  2  0  0  0  0
 27 45  1  0  0  0  0
 28 46  1  0  0  0  0
 29 47  1  0  0  0  0
 29 48  1  0  0  0  0
 29 49  1  0  0  0  0
 30 31  1  0  0  0  0
 30 50  1  0  0  0  0
 31 51  1  0  0  0  0
M  END
>  <$CLUSTER>
568

>  <INDEX>
267782

$$$$
InterBioScreen STOCK5S-53038
  MOE2020           3D

 52 56  0  0  0  0  0  0  0  0999 V2000
    3.7040    1.7670   -2.0480 C   0  0  0  0  0  0  0  0  0  0  0  0
    4.6770    1.0470   -1.4940 C   0  0  0  0  0  0  0  0  0  0  0  0
    2.1970   -0.0540   -1.4360 N   0  0  0  0  0  0  0  0  0  0  0  0
    2.3410    1.2130   -2.0440 C   0  0  0  0  0  0  0  0  0  0  0  0
    4.5260   -0.1770   -0.9110 N   0  0  0  0  0  0  0  0  0  0  0  0
    3.3290   -0.6860   -0.8890 C   0  0  0  0  0  0  0  0  0  0  0  0
    4.0070    3.1040   -2.6570 C   0  0  0  0  0  0  0  0  0  0  0  0
    6.0540    1.5800   -1.4900 N   0  0  0  0  0  0  0  0  0  0  0  0
    5.3950    3.5970   -2.6290 C   0  0  0  0  0  0  0  0  0  0  0  0
    6.3080    2.8150   -2.0570 C   0  0  0  0  0  0  0  0  0  0  0  0
    0.8580   -0.6320   -1.4320 C   0  0  0  0  0  0  0  0  0  0  0  0
    0.1020   -0.2080   -0.2320 C   0  0  0  0  0  0  0  0  0  0  0  0
    1.4290    1.8690   -2.5390 O   0  0  0  0  0  0  0  0  0  0  0  0
    3.1310    3.7890   -3.1710 O   0  0  0  0  0  0  0  0  0  0  0  0
   -0.6090    0.9520   -0.3370 O   0  0  0  0  0  0  0  0  0  0  0  0
    3.1650   -2.0740   -0.2530 C   0  0  0  0  0  0  0  0  0  0  0  0
   -0.0550   -0.7470    1.0280 C   0  0  0  0  0  0  0  0  0  0  0  0
   -1.2180    1.1490    0.8610 C   0  0  0  0  0  0  0  0  0  0  0  0
   -0.9090    0.1330    1.7340 C   0  0  0  0  0  0  0  0  0  0  0  0
    7.1480    0.8100   -0.8890 C   0  0  0  0  0  0  0  0  0  0  0  0
    5.6530    4.8510   -3.2050 C   0  0  0  0  0  0  0  0  0  0  0  0
    7.6900    3.3390   -2.0460 C   0  0  0  0  0  0  0  0  0  0  0  0
    3.4150   -3.1450   -1.3150 C   0  0  0  0  0  0  0  0  0  0  0  0
    4.1150   -2.2720    0.9300 C   0  0  0  0  0  0  0  0  0  0  0  0
    6.9560    5.3400   -3.1920 C   0  0  0  0  0  0  0  0  0  0  0  0
    7.9720    4.5850   -2.6140 C   0  0  0  0  0  0  0  0  0  0  0  0
    4.0100   -3.6620    1.5230 C   0  0  0  0  0  0  0  0  0  0  0  0
    3.3090   -4.5630   -0.7280 C   0  0  0  0  0  0  0  0  0  0  0  0
    4.2420   -4.7380    0.4670 C   0  0  0  0  0  0  0  0  0  0  0  0
    0.9390   -1.7190   -1.4370 H   0  0  0  0  0  0  0  0  0  0  0  0
    0.3250   -0.3030   -2.3240 H   0  0  0  0  0  0  0  0  0  0  0  0
    2.1480   -2.1580    0.1300 H   0  0  0  0  0  0  0  0  0  0  0  0
    0.3860   -1.6590    1.4010 H   0  0  0  0  0  0  0  0  0  0  0  0
   -1.8570    1.9880    1.0950 H   0  0  0  0  0  0  0  0  0  0  0  0
   -1.2500    0.0280    2.7530 H   0  0  0  0  0  0  0  0  0  0  0  0
    6.7580   -0.1290   -0.4970 H   0  0  0  0  0  0  0  0  0  0  0  0
    7.5940    1.3850   -0.0780 H   0  0  0  0  0  0  0  0  0  0  0  0
    7.9040    0.6020   -1.6460 H   0  0  0  0  0  0  0  0  0  0  0  0
    4.8550    5.4260   -3.6500 H   0  0  0  0  0  0  0  0  0  0  0  0
    8.4830    2.7580   -1.5990 H   0  0  0  0  0  0  0  0  0  0  0  0
    4.4140   -3.0070   -1.7280 H   0  0  0  0  0  0  0  0  0  0  0  0
    2.6760   -3.0350   -2.1090 H   0  0  0  0  0  0  0  0  0  0  0  0
    3.8710   -1.5420    1.7020 H   0  0  0  0  0  0  0  0  0  0  0  0
    5.1380   -2.1120    0.5890 H   0  0  0  0  0  0  0  0  0  0  0  0
    7.1780    6.3020   -3.6290 H   0  0  0  0  0  0  0  0  0  0  0  0
    8.9830    4.9630   -2.6040 H   0  0  0  0  0  0  0  0  0  0  0  0
    3.0150   -3.7920    1.9480 H   0  0  0  0  0  0  0  0  0  0  0  0
    4.7580   -3.7700    2.3090 H   0  0  0  0  0  0  0  0  0  0  0  0
    3.5770   -5.2870   -1.4970 H   0  0  0  0  0  0  0  0  0  0  0  0
    2.2830   -4.7390   -0.4060 H   0  0  0  0  0  0  0  0  0  0  0  0
    4.0650   -5.7160    0.9140 H   0  0  0  0  0  0  0  0  0  0  0  0
    5.2740   -4.6780    0.1220 H   0  0  0  0  0  0  0  0  0  0  0  0
  1  2  2  0  0  0  0
  1  4  1  0  0  0  0
  1  7  1  0  0  0  0
  2  5  1  0  0  0  0
  2  8  1  0  0  0  0
  3  4  1  0  0  0  0
  3  6  1  0  0  0  0
  3 11  1  0  0  0  0
  4 13  2  0  0  0  0
  5  6  2  0  0  0  0
  6 16  1  0  0  0  0
  7  9  1  0  0  0  0
  7 14  2  0  0  0  0
  8 10  1  0  0  0  0
  8 20  1  0  0  0  0
  9 10  2  0  0  0  0
  9 21  1  0  0  0  0
 10 22  1  0  0  0  0
 11 12  1  0  0  0  0
 11 30  1  0  0  0  0
 11 31  1  0  0  0  0
 12 15  1  0  0  0  0
 12 17  2  0  0  0  0
 15 18  1  0  0  0  0
 16 23  1  0  0  0  0
 16 24  1  0  0  0  0
 16 32  1  0  0  0  0
 17 19  1  0  0  0  0
 17 33  1  0  0  0  0
 18 19  2  0  0  0  0
 18 34  1  0  0  0  0
 19 35  1  0  0  0  0
 20 36  1  0  0  0  0
 20 37  1  0  0  0  0
 20 38  1  0  0  0  0
 21 25  2  0  0  0  0
 21 39  1  0  0  0  0
 22 26  2  0  0  0  0
 22 40  1  0  0  0  0
 23 28  1  0  0  0  0
 23 41  1  0  0  0  0
 23 42  1  0  0  0  0
 24 27  1  0  0  0  0
 24 43  1  0  0  0  0
 24 44  1  0  0  0  0
 25 26  1  0  0  0  0
 25 45  1  0  0  0  0
 26 46  1  0  0  0  0
 27 29  1  0  0  0  0
 27 47  1  0  0  0  0
 27 48  1  0  0  0  0
 28 29  1  0  0  0  0
 28 49  1  0  0  0  0
 28 50  1  0  0  0  0
 29 51  1  0  0  0  0
 29 52  1  0  0  0  0
M  END
>  <$CLUSTER>
569

>  <INDEX>
379244

$$$$
InterBioScreen STOCK5S-37392
  MOE2020           3D

 41 44  0  0  0  0  0  0  0  0999 V2000
    1.1890    1.1140    0.6800 N   0  0  0  0  0  0  0  0  0  0  0  0
   -0.1750   -0.6230    0.4630 N   0  0  0  0  0  0  0  0  0  0  0  0
    0.7360    0.0240    1.2690 C   0  0  0  0  0  0  0  0  0  0  0  0
    0.5550    1.1740   -0.5370 C   0  0  0  0  0  0  0  0  0  0  0  0
   -0.3080    0.0940   -0.7020 C   0  0  0  0  0  0  0  0  0  0  0  0
   -0.5600    3.0680   -4.9580 C   0  0  0  0  0  0  0  0  0  0  0  0
    0.0680    2.9810   -3.7230 N   0  0  0  0  0  0  0  0  0  0  0  0
    0.6690    2.1300   -1.5610 C   0  0  0  0  0  0  0  0  0  0  0  0
   -1.0840   -0.0840   -1.8520 C   0  0  0  0  0  0  0  0  0  0  0  0
   -0.1070    4.2910   -5.7150 C   0  0  0  0  0  0  0  0  0  0  0  0
   -0.0980    1.9650   -2.7210 C   0  0  0  0  0  0  0  0  0  0  0  0
   -1.3840    2.2990   -5.4430 O   0  0  0  0  0  0  0  0  0  0  0  0
    0.0410   -1.6600    3.3620 S   0  0  0  0  0  0  0  0  0  0  0  0
    1.1170    4.8990   -5.5650 C   0  0  0  0  0  0  0  0  0  0  0  0
   -1.0140    4.7850   -6.7030 C   0  0  0  0  0  0  0  0  0  0  0  0
    1.1750   -0.4670    2.6040 C   0  0  0  0  0  0  0  0  0  0  0  0
   -0.9590    0.8760   -2.8610 C   0  0  0  0  0  0  0  0  0  0  0  0
   -0.8920   -1.8410    0.7910 C   0  0  0  0  0  0  0  0  0  0  0  0
    0.5710    6.5150   -7.2820 C   0  0  0  0  0  0  0  0  0  0  0  0
   -0.6650    5.9000   -7.4670 C   0  0  0  0  0  0  0  0  0  0  0  0
    1.4620    6.0130   -6.3330 C   0  0  0  0  0  0  0  0  0  0  0  0
    1.0290    7.6070   -7.9820 O   0  0  0  0  0  0  0  0  0  0  0  0
   -0.2520   -2.6790    1.8900 C   0  0  0  0  0  0  0  0  0  0  0  0
    0.1570    8.1520   -8.9660 C   0  0  0  0  0  0  0  0  0  0  0  0
    0.7200    3.7210   -3.5030 H   0  0  0  0  0  0  0  0  0  0  0  0
    1.3340    2.9740   -1.4550 H   0  0  0  0  0  0  0  0  0  0  0  0
   -1.7510   -0.9270   -1.9560 H   0  0  0  0  0  0  0  0  0  0  0  0
    1.8210    4.5100   -4.8440 H   0  0  0  0  0  0  0  0  0  0  0  0
   -1.9650    4.2980   -6.8580 H   0  0  0  0  0  0  0  0  0  0  0  0
    1.2660    0.3900    3.2710 H   0  0  0  0  0  0  0  0  0  0  0  0
    2.1480   -0.9440    2.4900 H   0  0  0  0  0  0  0  0  0  0  0  0
   -1.5400    0.7730   -3.7660 H   0  0  0  0  0  0  0  0  0  0  0  0
   -0.9540   -2.4520   -0.1100 H   0  0  0  0  0  0  0  0  0  0  0  0
   -1.8960   -1.5670    1.1140 H   0  0  0  0  0  0  0  0  0  0  0  0
   -1.3550    6.2860   -8.2030 H   0  0  0  0  0  0  0  0  0  0  0  0
    2.4220    6.4880   -6.1920 H   0  0  0  0  0  0  0  0  0  0  0  0
   -0.9170   -3.5030    2.1490 H   0  0  0  0  0  0  0  0  0  0  0  0
    0.6980   -3.0770    1.5330 H   0  0  0  0  0  0  0  0  0  0  0  0
    0.6370    9.0060   -9.4440 H   0  0  0  0  0  0  0  0  0  0  0  0
   -0.7700    8.4740   -8.4920 H   0  0  0  0  0  0  0  0  0  0  0  0
   -0.0640    7.3930   -9.7160 H   0  0  0  0  0  0  0  0  0  0  0  0
  1  3  2  0  0  0  0
  1  4  1  0  0  0  0
  2  3  1  0  0  0  0
  2  5  1  0  0  0  0
  2 18  1  0  0  0  0
  3 16  1  0  0  0  0
  4  5  2  0  0  0  0
  4  8  1  0  0  0  0
  5  9  1  0  0  0  0
  6  7  1  0  0  0  0
  6 10  1  0  0  0  0
  6 12  2  0  0  0  0
  7 11  1  0  0  0  0
  7 25  1  0  0  0  0
  8 11  2  0  0  0  0
  8 26  1  0  0  0  0
  9 17  2  0  0  0  0
  9 27  1  0  0  0  0
 10 14  1  0  0  0  0
 10 15  2  0  0  0  0
 11 17  1  0  0  0  0
 13 16  1  0  0  0  0
 13 23  1  0  0  0  0
 14 21  2  0  0  0  0
 14 28  1  0  0  0  0
 15 20  1  0  0  0  0
 15 29  1  0  0  0  0
 16 30  1  0  0  0  0
 16 31  1  0  0  0  0
 17 32  1  0  0  0  0
 18 23  1  0  0  0  0
 18 33  1  0  0  0  0
 18 34  1  0  0  0  0
 19 20  2  0  0  0  0
 19 21  1  0  0  0  0
 19 22  1  0  0  0  0
 20 35  1  0  0  0  0
 21 36  1  0  0  0  0
 22 24  1  0  0  0  0
 23 37  1  0  0  0  0
 23 38  1  0  0  0  0
 24 39  1  0  0  0  0
 24 40  1  0  0  0  0
 24 41  1  0  0  0  0
M  END
>  <$CLUSTER>
570

>  <INDEX>
373662

$$$$
InterBioScreen STOCK5S-38438
  MOE2020           3D

 28 30  0  0  0  0  0  0  0  0999 V2000
    0.3950    0.3000   -0.4110 C   0  0  0  0  0  0  0  0  0  0  0  0
    0.9790   -0.3860   -1.3580 N   0  0  0  0  0  0  0  0  0  0  0  0
   -0.4730   -0.2540    0.5250 N   0  0  0  0  0  0  0  0  0  0  0  0
    0.6390    1.6760   -0.3080 N   0  0  0  0  0  0  0  0  0  0  0  0
    1.8130    0.2730   -2.2190 C   0  0  0  0  0  0  0  0  0  0  0  0
    1.4710    2.3920   -1.1500 C   0  0  0  0  0  0  0  0  0  0  0  0
    2.1020    1.5760   -2.1950 C   0  0  0  0  0  0  0  0  0  0  0  0
   -0.8900   -1.6020    0.6490 C   0  0  0  0  0  0  0  0  0  0  0  0
   -1.1490    0.4850    1.6060 C   0  0  0  0  0  0  0  0  0  0  0  0
   -1.7740   -1.7810    1.7190 C   0  0  0  0  0  0  0  0  0  0  0  0
    1.6860    3.5950   -1.0620 O   0  0  0  0  0  0  0  0  0  0  0  0
   -2.0170   -0.4900    2.4160 C   0  0  0  0  0  0  0  0  0  0  0  0
    2.3900   -0.5440   -3.1970 O   0  0  0  0  0  0  0  0  0  0  0  0
   -0.5420   -2.7020   -0.1250 C   0  0  0  0  0  0  0  0  0  0  0  0
   -2.3160   -3.0180    2.0370 C   0  0  0  0  0  0  0  0  0  0  0  0
   -1.0800   -3.9580    0.1820 C   0  0  0  0  0  0  0  0  0  0  0  0
   -1.9630   -4.1150    1.2570 C   0  0  0  0  0  0  0  0  0  0  0  0
    0.1750    2.1810    0.4330 H   0  0  0  0  0  0  0  0  0  0  0  0
    2.7750    2.0140   -2.9170 H   0  0  0  0  0  0  0  0  0  0  0  0
   -1.7790    1.2640    1.1770 H   0  0  0  0  0  0  0  0  0  0  0  0
   -0.4040    0.9390    2.2590 H   0  0  0  0  0  0  0  0  0  0  0  0
   -3.0700   -0.2100    2.3740 H   0  0  0  0  0  0  0  0  0  0  0  0
   -1.6940   -0.5360    3.4560 H   0  0  0  0  0  0  0  0  0  0  0  0
    2.9770   -0.0930   -3.8080 H   0  0  0  0  0  0  0  0  0  0  0  0
    0.1380   -2.5890   -0.9570 H   0  0  0  0  0  0  0  0  0  0  0  0
   -2.9950   -3.1270    2.8700 H   0  0  0  0  0  0  0  0  0  0  0  0
   -0.8110   -4.8150   -0.4170 H   0  0  0  0  0  0  0  0  0  0  0  0
   -2.3710   -5.0890    1.4810 H   0  0  0  0  0  0  0  0  0  0  0  0
  1  2  2  0  0  0  0
  1  3  1  0  0  0  0
  1  4  1  0  0  0  0
  2  5  1  0  0  0  0
  3  8  1  0  0  0  0
  3  9  1  0  0  0  0
  4  6  1  0  0  0  0
  4 18  1  0  0  0  0
  5  7  2  0  0  0  0
  5 13  1  0  0  0  0
  6  7  1  0  0  0  0
  6 11  2  0  0  0  0
  7 19  1  0  0  0  0
  8 10  2  0  0  0  0
  8 14  1  0  0  0  0
  9 12  1  0  0  0  0
  9 20  1  0  0  0  0
  9 21  1  0  0  0  0
 10 12  1  0  0  0  0
 10 15  1  0  0  0  0
 12 22  1  0  0  0  0
 12 23  1  0  0  0  0
 13 24  1  0  0  0  0
 14 16  2  0  0  0  0
 14 25  1  0  0  0  0
 15 17  2  0  0  0  0
 15 26  1  0  0  0  0
 16 17  1  0  0  0  0
 16 27  1  0  0  0  0
 17 28  1  0  0  0  0
M  END
>  <$CLUSTER>
571

>  <INDEX>
374010

$$$$
InterBioScreen STOCK5S-52202
  MOE2020           3D

 53 57  0  0  0  0  0  0  0  0999 V2000
    0.9770    0.8270   -0.0990 C   0  0  0  0  0  0  0  0  0  0  0  0
   -0.5850   -0.8070   -0.1820 C   0  0  0  0  0  0  0  0  0  0  0  0
   -1.0710    0.3060    0.4840 C   0  0  0  0  0  0  0  0  0  0  0  0
    0.7410   -0.4640   -0.5600 C   0  0  0  0  0  0  0  0  0  0  0  0
   -0.1360    1.2910    0.5390 O   0  0  0  0  0  0  0  0  0  0  0  0
   -1.4450   -1.9140   -0.3170 C   0  0  0  0  0  0  0  0  0  0  0  0
    2.1970    1.4920   -0.2960 C   0  0  0  0  0  0  0  0  0  0  0  0
   -2.7470   -1.7870    0.2170 C   0  0  0  0  0  0  0  0  0  0  0  0
   -2.2830    0.4760    1.0280 N   0  0  0  0  0  0  0  0  0  0  0  0
   -3.1020   -0.5950    0.8840 C   0  0  0  0  0  0  0  0  0  0  0  0
    2.4960    2.7770    0.1390 N   0  0  0  0  0  0  0  0  0  0  0  0
    3.1270    0.7480   -0.9840 N   0  0  0  0  0  0  0  0  0  0  0  0
    1.6700   -1.1770   -1.2360 N   0  0  0  0  0  0  0  0  0  0  0  0
   -3.7030   -2.9540    0.1190 C   0  0  0  0  0  0  0  0  0  0  0  0
   -3.3010   -3.9890   -0.7810 O   0  0  0  0  0  0  0  0  0  0  0  0
   -1.0500   -3.1730   -1.0470 C   0  0  0  0  0  0  0  0  0  0  0  0
   -1.9270   -4.3790   -0.6770 C   0  0  0  0  0  0  0  0  0  0  0  0
    2.8190   -0.5010   -1.4000 C   0  0  0  0  0  0  0  0  0  0  0  0
    3.8160    3.3110   -0.1540 C   0  0  0  0  0  0  0  0  0  0  0  0
    1.5410    3.5930    0.8670 C   0  0  0  0  0  0  0  0  0  0  0  0
   -4.4750   -0.4010    1.4880 C   0  0  0  0  0  0  0  0  0  0  0  0
   -1.7240   -5.4900   -1.7170 C   0  0  0  0  0  0  0  0  0  0  0  0
   -1.5950   -4.9490    0.7110 C   0  0  0  0  0  0  0  0  0  0  0  0
   -5.4320    0.2610    0.5070 C   0  0  0  0  0  0  0  0  0  0  0  0
    1.9510    4.9650    0.1850 C   0  0  0  0  0  0  0  0  0  0  0  0
    3.3300    4.7940   -0.4330 C   0  0  0  0  0  0  0  0  0  0  0  0
   -6.8160    0.4580    1.1130 C   0  0  0  0  0  0  0  0  0  0  0  0
   -4.6690   -2.5730   -0.2130 H   0  0  0  0  0  0  0  0  0  0  0  0
   -3.8070   -3.3910    1.1120 H   0  0  0  0  0  0  0  0  0  0  0  0
   -0.0140   -3.4070   -0.8010 H   0  0  0  0  0  0  0  0  0  0  0  0
   -1.1370   -2.9950   -2.1190 H   0  0  0  0  0  0  0  0  0  0  0  0
    3.5990   -1.0240   -1.9340 H   0  0  0  0  0  0  0  0  0  0  0  0
    4.2750    2.8460   -1.0270 H   0  0  0  0  0  0  0  0  0  0  0  0
    4.4970    3.2430    0.6950 H   0  0  0  0  0  0  0  0  0  0  0  0
    1.7150    3.5880    1.9430 H   0  0  0  0  0  0  0  0  0  0  0  0
    0.5070    3.3140    0.6650 H   0  0  0  0  0  0  0  0  0  0  0  0
   -4.3860    0.2280    2.3740 H   0  0  0  0  0  0  0  0  0  0  0  0
   -4.8770   -1.3740    1.7720 H   0  0  0  0  0  0  0  0  0  0  0  0
   -1.9550   -5.1050   -2.7100 H   0  0  0  0  0  0  0  0  0  0  0  0
   -2.3850   -6.3260   -1.4890 H   0  0  0  0  0  0  0  0  0  0  0  0
   -0.6880   -5.8280   -1.6900 H   0  0  0  0  0  0  0  0  0  0  0  0
   -1.7330   -4.1740    1.4650 H   0  0  0  0  0  0  0  0  0  0  0  0
   -0.5600   -5.2900    0.7260 H   0  0  0  0  0  0  0  0  0  0  0  0
   -2.2570   -5.7880    0.9270 H   0  0  0  0  0  0  0  0  0  0  0  0
   -5.5210   -0.3680   -0.3790 H   0  0  0  0  0  0  0  0  0  0  0  0
   -5.0290    1.2330    0.2230 H   0  0  0  0  0  0  0  0  0  0  0  0
    1.9780    5.7560    0.9340 H   0  0  0  0  0  0  0  0  0  0  0  0
    1.2290    5.2230   -0.5900 H   0  0  0  0  0  0  0  0  0  0  0  0
    3.2770    4.9690   -1.5080 H   0  0  0  0  0  0  0  0  0  0  0  0
    4.0260    5.5020    0.0170 H   0  0  0  0  0  0  0  0  0  0  0  0
   -7.2280   -0.5090    1.4010 H   0  0  0  0  0  0  0  0  0  0  0  0
   -7.4710    0.9280    0.3790 H   0  0  0  0  0  0  0  0  0  0  0  0
   -6.7400    1.0970    1.9930 H   0  0  0  0  0  0  0  0  0  0  0  0
  1  4  1  0  0  0  0
  1  5  1  0  0  0  0
  1  7  2  0  0  0  0
  2  3  1  0  0  0  0
  2  4  1  0  0  0  0
  2  6  2  0  0  0  0
  3  5  1  0  0  0  0
  3  9  2  0  0  0  0
  4 13  2  0  0  0  0
  6  8  1  0  0  0  0
  6 16  1  0  0  0  0
  7 11  1  0  0  0  0
  7 12  1  0  0  0  0
  8 10  2  0  0  0  0
  8 14  1  0  0  0  0
  9 10  1  0  0  0  0
 10 21  1  0  0  0  0
 11 19  1  0  0  0  0
 11 20  1  0  0  0  0
 12 18  2  0  0  0  0
 13 18  1  0  0  0  0
 14 15  1  0  0  0  0
 14 28  1  0  0  0  0
 14 29  1  0  0  0  0
 15 17  1  0  0  0  0
 16 17  1  0  0  0  0
 16 30  1  0  0  0  0
 16 31  1  0  0  0  0
 17 22  1  0  0  0  0
 17 23  1  0  0  0  0
 18 32  1  0  0  0  0
 19 26  1  0  0  0  0
 19 33  1  0  0  0  0
 19 34  1  0  0  0  0
 20 25  1  0  0  0  0
 20 35  1  0  0  0  0
 20 36  1  0  0  0  0
 21 24  1  0  0  0  0
 21 37  1  0  0  0  0
 21 38  1  0  0  0  0
 22 39  1  0  0  0  0
 22 40  1  0  0  0  0
 22 41  1  0  0  0  0
 23 42  1  0  0  0  0
 23 43  1  0  0  0  0
 23 44  1  0  0  0  0
 24 27  1  0  0  0  0
 24 45  1  0  0  0  0
 24 46  1  0  0  0  0
 25 26  1  0  0  0  0
 25 47  1  0  0  0  0
 25 48  1  0  0  0  0
 26 49  1  0  0  0  0
 26 50  1  0  0  0  0
 27 51  1  0  0  0  0
 27 52  1  0  0  0  0
 27 53  1  0  0  0  0
M  END
>  <$CLUSTER>
572

>  <INDEX>
378920

$$$$
Tripos 1528-06582
  MOE2020           3D

 42 44  0  0  0  0  0  0  0  0999 V2000
    1.7470    0.0250   -0.2700 S   0  0  0  0  0  0  0  0  0  0  0  0
    0.0430   -0.1500    0.1250 C   0  0  0  0  0  0  0  0  0  0  0  0
    2.5180   -1.1410    0.6390 N   0  0  0  0  0  0  0  0  0  0  0  0
   -0.9040    0.6860   -0.4710 C   0  0  0  0  0  0  0  0  0  0  0  0
    3.3630   -1.9990    2.8560 C   0  0  0  0  0  0  0  0  0  0  0  0
    2.5260   -0.9690    2.1280 C   0  0  0  0  0  0  0  0  0  0  0  0
    3.7500   -3.2080    2.2470 C   0  0  0  0  0  0  0  0  0  0  0  0
    1.9280   -0.3500   -1.6610 O   0  0  0  0  0  0  0  0  0  0  0  0
    2.1970    1.3080    0.2370 O   0  0  0  0  0  0  0  0  0  0  0  0
   -0.3700   -1.1300    1.0390 C   0  0  0  0  0  0  0  0  0  0  0  0
    3.7150   -1.7670    4.1950 C   0  0  0  0  0  0  0  0  0  0  0  0
    4.4600   -2.7070    4.9100 C   0  0  0  0  0  0  0  0  0  0  0  0
    4.8570   -3.8920    4.2950 C   0  0  0  0  0  0  0  0  0  0  0  0
    4.5080   -4.1420    2.9690 C   0  0  0  0  0  0  0  0  0  0  0  0
   -2.2600    0.5370   -0.1480 C   0  0  0  0  0  0  0  0  0  0  0  0
    2.2650   -2.5770    0.2890 C   0  0  0  0  0  0  0  0  0  0  0  0
    3.4010   -3.4660    0.8050 C   0  0  0  0  0  0  0  0  0  0  0  0
   -2.6660   -0.4390    0.7620 C   0  0  0  0  0  0  0  0  0  0  0  0
   -0.5120    1.9250   -1.6090 Cl  0  0  0  0  0  0  0  0  0  0  0  0
   -1.7210   -1.2710    1.3550 C   0  0  0  0  0  0  0  0  0  0  0  0
    4.8520   -2.5420    6.2210 O   0  0  0  0  0  0  0  0  0  0  0  0
    5.5870   -4.7620    5.0750 O   0  0  0  0  0  0  0  0  0  0  0  0
   -4.3190   -0.6000    1.1360 Cl  0  0  0  0  0  0  0  0  0  0  0  0
    4.4670   -1.3400    6.8770 C   0  0  0  0  0  0  0  0  0  0  0  0
    6.0060   -5.9850    4.4810 C   0  0  0  0  0  0  0  0  0  0  0  0
    1.5000   -1.0430    2.4880 H   0  0  0  0  0  0  0  0  0  0  0  0
    2.9220    0.0200    2.3580 H   0  0  0  0  0  0  0  0  0  0  0  0
    0.3610   -1.7780    1.5000 H   0  0  0  0  0  0  0  0  0  0  0  0
    3.4060   -0.8510    4.6770 H   0  0  0  0  0  0  0  0  0  0  0  0
    4.8230   -5.0600    2.4950 H   0  0  0  0  0  0  0  0  0  0  0  0
   -2.9950    1.1820   -0.6070 H   0  0  0  0  0  0  0  0  0  0  0  0
    2.1970   -2.6750   -0.7940 H   0  0  0  0  0  0  0  0  0  0  0  0
    1.3260   -2.8960    0.7420 H   0  0  0  0  0  0  0  0  0  0  0  0
    3.0980   -4.5080    0.7030 H   0  0  0  0  0  0  0  0  0  0  0  0
    4.2870   -3.2840    0.1970 H   0  0  0  0  0  0  0  0  0  0  0  0
   -2.0340   -2.0260    2.0600 H   0  0  0  0  0  0  0  0  0  0  0  0
    4.8440   -1.3480    7.9000 H   0  0  0  0  0  0  0  0  0  0  0  0
    3.3800   -1.2660    6.8910 H   0  0  0  0  0  0  0  0  0  0  0  0
    4.8830   -0.4850    6.3430 H   0  0  0  0  0  0  0  0  0  0  0  0
    6.5690   -6.5680    5.2090 H   0  0  0  0  0  0  0  0  0  0  0  0
    6.6380   -5.7720    3.6190 H   0  0  0  0  0  0  0  0  0  0  0  0
    5.1320   -6.5510    4.1600 H   0  0  0  0  0  0  0  0  0  0  0  0
  1  2  1  0  0  0  0
  1  3  1  0  0  0  0
  1  8  2  0  0  0  0
  1  9  2  0  0  0  0
  2  4  2  0  0  0  0
  2 10  1  0  0  0  0
  3  6  1  0  0  0  0
  3 16  1  0  0  0  0
  4 15  1  0  0  0  0
  4 19  1  0  0  0  0
  5  6  1  0  0  0  0
  5  7  1  0  0  0  0
  5 11  2  0  0  0  0
  6 26  1  0  0  0  0
  6 27  1  0  0  0  0
  7 14  2  0  0  0  0
  7 17  1  0  0  0  0
 10 20  2  0  0  0  0
 10 28  1  0  0  0  0
 11 12  1  0  0  0  0
 11 29  1  0  0  0  0
 12 13  2  0  0  0  0
 12 21  1  0  0  0  0
 13 14  1  0  0  0  0
 13 22  1  0  0  0  0
 14 30  1  0  0  0  0
 15 18  2  0  0  0  0
 15 31  1  0  0  0  0
 16 17  1  0  0  0  0
 16 32  1  0  0  0  0
 16 33  1  0  0  0  0
 17 34  1  0  0  0  0
 17 35  1  0  0  0  0
 18 20  1  0  0  0  0
 18 23  1  0  0  0  0
 20 36  1  0  0  0  0
 21 24  1  0  0  0  0
 22 25  1  0  0  0  0
 24 37  1  0  0  0  0
 24 38  1  0  0  0  0
 24 39  1  0  0  0  0
 25 40  1  0  0  0  0
 25 41  1  0  0  0  0
 25 42  1  0  0  0  0
M  END
>  <$CLUSTER>
573

>  <INDEX>
451957

$$$$
InterBioScreen STOCK5S-48304
  MOE2020           3D

 56 60  0  0  0  0  0  0  0  0999 V2000
    1.3760   -1.3270    1.5410 C   0  0  0  0  0  0  0  0  0  0  0  0
    0.6720   -2.0680    0.6830 C   0  0  0  0  0  0  0  0  0  0  0  0
    0.8540   -3.5360    0.7160 N   0  0  0  0  0  0  0  0  0  0  0  0
    2.3280   -1.9460    2.5140 C   0  0  0  0  0  0  0  0  0  0  0  0
    2.4170   -3.3170    2.4540 N   0  0  0  0  0  0  0  0  0  0  0  0
    1.6810   -4.0410    1.5640 C   0  0  0  0  0  0  0  0  0  0  0  0
    1.1890    0.1350    1.5020 C   0  0  0  0  0  0  0  0  0  0  0  0
   -0.2290   -1.5980   -0.2520 N   0  0  0  0  0  0  0  0  0  0  0  0
    0.2310    0.6780    0.5130 C   0  0  0  0  0  0  0  0  0  0  0  0
   -0.4610   -0.2050   -0.3480 C   0  0  0  0  0  0  0  0  0  0  0  0
    3.3630   -3.9670    3.3940 C   0  0  0  0  0  0  0  0  0  0  0  0
    1.7680   -5.5080    1.5060 C   0  0  0  0  0  0  0  0  0  0  0  0
    2.9780   -1.2680    3.3040 O   0  0  0  0  0  0  0  0  0  0  0  0
    1.8090    0.8640    2.2660 O   0  0  0  0  0  0  0  0  0  0  0  0
    2.6600   -6.1080    0.6170 C   0  0  0  0  0  0  0  0  0  0  0  0
    0.9530   -6.2770    2.3380 C   0  0  0  0  0  0  0  0  0  0  0  0
   -0.9520   -2.4970   -1.1480 C   0  0  0  0  0  0  0  0  0  0  0  0
    4.7830   -3.9930    2.8450 C   0  0  0  0  0  0  0  0  0  0  0  0
    1.9610   -8.2770    1.4280 C   0  0  0  0  0  0  0  0  0  0  0  0
    0.0350    2.0630    0.4550 C   0  0  0  0  0  0  0  0  0  0  0  0
    2.7590   -7.4990    0.5850 C   0  0  0  0  0  0  0  0  0  0  0  0
    1.0570   -7.6680    2.3010 C   0  0  0  0  0  0  0  0  0  0  0  0
   -1.3580    0.3680   -1.2670 C   0  0  0  0  0  0  0  0  0  0  0  0
    5.7380   -4.6640    3.7970 C   0  0  0  0  0  0  0  0  0  0  0  0
    2.1470   -9.6400    1.2960 O   0  0  0  0  0  0  0  0  0  0  0  0
    5.9590   -6.0480    3.7310 C   0  0  0  0  0  0  0  0  0  0  0  0
    6.4050   -3.9210    4.7820 C   0  0  0  0  0  0  0  0  0  0  0  0
    1.3560  -10.4820    2.1270 C   0  0  0  0  0  0  0  0  0  0  0  0
   -0.8600    2.5970   -0.4670 C   0  0  0  0  0  0  0  0  0  0  0  0
   -1.5550    1.7510   -1.3260 C   0  0  0  0  0  0  0  0  0  0  0  0
    7.2790   -4.5460    5.6730 C   0  0  0  0  0  0  0  0  0  0  0  0
    6.8330   -6.6710    4.6230 C   0  0  0  0  0  0  0  0  0  0  0  0
    7.4930   -5.9190    5.5920 C   0  0  0  0  0  0  0  0  0  0  0  0
    3.0350   -4.9910    3.5710 H   0  0  0  0  0  0  0  0  0  0  0  0
    3.3590   -3.4160    4.3350 H   0  0  0  0  0  0  0  0  0  0  0  0
    3.2670   -5.5020   -0.0390 H   0  0  0  0  0  0  0  0  0  0  0  0
    0.2490   -5.8000    3.0040 H   0  0  0  0  0  0  0  0  0  0  0  0
   -0.6590   -3.5270   -0.9440 H   0  0  0  0  0  0  0  0  0  0  0  0
   -0.7120   -2.2490   -2.1820 H   0  0  0  0  0  0  0  0  0  0  0  0
   -2.0240   -2.3860   -0.9870 H   0  0  0  0  0  0  0  0  0  0  0  0
    5.1150   -2.9690    2.6760 H   0  0  0  0  0  0  0  0  0  0  0  0
    4.7860   -4.5370    1.9000 H   0  0  0  0  0  0  0  0  0  0  0  0
    0.5770    2.7150    1.1240 H   0  0  0  0  0  0  0  0  0  0  0  0
    3.4530   -7.9750   -0.0920 H   0  0  0  0  0  0  0  0  0  0  0  0
    0.4390   -8.2730    2.9470 H   0  0  0  0  0  0  0  0  0  0  0  0
   -1.9060   -0.2730   -1.9410 H   0  0  0  0  0  0  0  0  0  0  0  0
    5.4480   -6.6360    2.9830 H   0  0  0  0  0  0  0  0  0  0  0  0
    6.2410   -2.8560    4.8520 H   0  0  0  0  0  0  0  0  0  0  0  0
    1.5990  -11.5250    1.9240 H   0  0  0  0  0  0  0  0  0  0  0  0
    0.3000  -10.3080    1.9200 H   0  0  0  0  0  0  0  0  0  0  0  0
    1.5630  -10.2580    3.1730 H   0  0  0  0  0  0  0  0  0  0  0  0
   -1.0150    3.6650   -0.5160 H   0  0  0  0  0  0  0  0  0  0  0  0
   -2.2500    2.1650   -2.0420 H   0  0  0  0  0  0  0  0  0  0  0  0
    7.7900   -3.9640    6.4260 H   0  0  0  0  0  0  0  0  0  0  0  0
    6.9980   -7.7370    4.5620 H   0  0  0  0  0  0  0  0  0  0  0  0
    8.1710   -6.4010    6.2810 H   0  0  0  0  0  0  0  0  0  0  0  0
  1  2  2  0  0  0  0
  1  4  1  0  0  0  0
  1  7  1  0  0  0  0
  2  3  1  0  0  0  0
  2  8  1  0  0  0  0
  3  6  2  0  0  0  0
  4  5  1  0  0  0  0
  4 13  2  0  0  0  0
  5  6  1  0  0  0  0
  5 11  1  0  0  0  0
  6 12  1  0  0  0  0
  7  9  1  0  0  0  0
  7 14  2  0  0  0  0
  8 10  1  0  0  0  0
  8 17  1  0  0  0  0
  9 10  2  0  0  0  0
  9 20  1  0  0  0  0
 10 23  1  0  0  0  0
 11 18  1  0  0  0  0
 11 34  1  0  0  0  0
 11 35  1  0  0  0  0
 12 15  2  0  0  0  0
 12 16  1  0  0  0  0
 15 21  1  0  0  0  0
 15 36  1  0  0  0  0
 16 22  2  0  0  0  0
 16 37  1  0  0  0  0
 17 38  1  0  0  0  0
 17 39  1  0  0  0  0
 17 40  1  0  0  0  0
 18 24  1  0  0  0  0
 18 41  1  0  0  0  0
 18 42  1  0  0  0  0
 19 21  2  0  0  0  0
 19 22  1  0  0  0  0
 19 25  1  0  0  0  0
 20 29  2  0  0  0  0
 20 43  1  0  0  0  0
 21 44  1  0  0  0  0
 22 45  1  0  0  0  0
 23 30  2  0  0  0  0
 23 46  1  0  0  0  0
 24 26  1  0  0  0  0
 24 27  2  0  0  0  0
 25 28  1  0  0  0  0
 26 32  2  0  0  0  0
 26 47  1  0  0  0  0
 27 31  1  0  0  0  0
 27 48  1  0  0  0  0
 28 49  1  0  0  0  0
 28 50  1  0  0  0  0
 28 51  1  0  0  0  0
 29 30  1  0  0  0  0
 29 52  1  0  0  0  0
 30 53  1  0  0  0  0
 31 33  2  0  0  0  0
 31 54  1  0  0  0  0
 32 33  1  0  0  0  0
 32 55  1  0  0  0  0
 33 56  1  0  0  0  0
M  END
>  <$CLUSTER>
574

>  <INDEX>
377513

$$$$
InterBioScreen STOCK5S-31816
  MOE2020           3D

 40 43  0  0  0  0  0  0  0  0999 V2000
    1.0480    1.2220    0.7160 N   0  0  0  0  0  0  0  0  0  0  0  0
   -0.1850   -0.5850    0.3670 N   0  0  0  0  0  0  0  0  0  0  0  0
    0.6600    0.0720    1.2260 C   0  0  0  0  0  0  0  0  0  0  0  0
    0.4310    1.3020   -0.5140 C   0  0  0  0  0  0  0  0  0  0  0  0
   -1.1940    3.4190   -4.6470 C   0  0  0  0  0  0  0  0  0  0  0  0
   -0.3490    0.1720   -0.7580 C   0  0  0  0  0  0  0  0  0  0  0  0
   -0.1700    3.2340   -3.6980 N   0  0  0  0  0  0  0  0  0  0  0  0
   -0.2370    2.1570   -2.6690 C   0  0  0  0  0  0  0  0  0  0  0  0
    0.4930    2.3160   -1.4850 C   0  0  0  0  0  0  0  0  0  0  0  0
   -0.9450    4.4620   -5.7120 C   0  0  0  0  0  0  0  0  0  0  0  0
   -1.0860   -0.0040   -1.9320 C   0  0  0  0  0  0  0  0  0  0  0  0
   -2.2800    2.8330   -4.6580 O   0  0  0  0  0  0  0  0  0  0  0  0
   -1.0120    1.0160   -2.8870 C   0  0  0  0  0  0  0  0  0  0  0  0
    0.3610    4.7850   -6.1030 C   0  0  0  0  0  0  0  0  0  0  0  0
    0.1470   -1.5750    2.8870 O   0  0  0  0  0  0  0  0  0  0  0  0
    1.0650   -0.5320    2.5220 C   0  0  0  0  0  0  0  0  0  0  0  0
   -0.7810   -1.8680    0.6830 C   0  0  0  0  0  0  0  0  0  0  0  0
    0.5550    5.7450   -7.0990 C   0  0  0  0  0  0  0  0  0  0  0  0
    2.2810    6.1740   -7.6150 Br  0  0  0  0  0  0  0  0  0  0  0  0
    1.0110    4.1090   -3.6450 C   0  0  0  0  0  0  0  0  0  0  0  0
   -2.0320    5.0750   -6.3050 C   0  0  0  0  0  0  0  0  0  0  0  0
   -1.8320    6.0350   -7.2980 C   0  0  0  0  0  0  0  0  0  0  0  0
   -0.0330   -2.5290    1.8340 C   0  0  0  0  0  0  0  0  0  0  0  0
   -0.5390    6.3720   -7.6940 C   0  0  0  0  0  0  0  0  0  0  0  0
    1.0920    3.2000   -1.3210 H   0  0  0  0  0  0  0  0  0  0  0  0
   -1.6860   -0.8870   -2.0950 H   0  0  0  0  0  0  0  0  0  0  0  0
   -1.5650    0.9190   -3.8100 H   0  0  0  0  0  0  0  0  0  0  0  0
    1.2070    4.2980   -5.6400 H   0  0  0  0  0  0  0  0  0  0  0  0
    1.0630    0.2370    3.2950 H   0  0  0  0  0  0  0  0  0  0  0  0
    2.0670   -0.9500    2.4280 H   0  0  0  0  0  0  0  0  0  0  0  0
   -0.7330   -2.5130   -0.1950 H   0  0  0  0  0  0  0  0  0  0  0  0
   -1.8220   -1.7200    0.9690 H   0  0  0  0  0  0  0  0  0  0  0  0
    0.9490    4.8520   -4.4400 H   0  0  0  0  0  0  0  0  0  0  0  0
    1.9130    3.5110   -3.7760 H   0  0  0  0  0  0  0  0  0  0  0  0
    1.0470    4.6130   -2.6790 H   0  0  0  0  0  0  0  0  0  0  0  0
   -3.0340    4.8120   -6.0010 H   0  0  0  0  0  0  0  0  0  0  0  0
   -2.6800    6.5170   -7.7600 H   0  0  0  0  0  0  0  0  0  0  0  0
   -0.6090   -3.3770    2.2040 H   0  0  0  0  0  0  0  0  0  0  0  0
    0.9400   -2.8760    1.4860 H   0  0  0  0  0  0  0  0  0  0  0  0
   -0.3850    7.1170   -8.4600 H   0  0  0  0  0  0  0  0  0  0  0  0
  1  3  2  0  0  0  0
  1  4  1  0  0  0  0
  2  3  1  0  0  0  0
  2  6  1  0  0  0  0
  2 17  1  0  0  0  0
  3 16  1  0  0  0  0
  4  6  1  0  0  0  0
  4  9  2  0  0  0  0
  5  7  1  0  0  0  0
  5 10  1  0  0  0  0
  5 12  2  0  0  0  0
  6 11  2  0  0  0  0
  7  8  1  0  0  0  0
  7 20  1  0  0  0  0
  8  9  1  0  0  0  0
  8 13  2  0  0  0  0
  9 25  1  0  0  0  0
 10 14  2  0  0  0  0
 10 21  1  0  0  0  0
 11 13  1  0  0  0  0
 11 26  1  0  0  0  0
 13 27  1  0  0  0  0
 14 18  1  0  0  0  0
 14 28  1  0  0  0  0
 15 16  1  0  0  0  0
 15 23  1  0  0  0  0
 16 29  1  0  0  0  0
 16 30  1  0  0  0  0
 17 23  1  0  0  0  0
 17 31  1  0  0  0  0
 17 32  1  0  0  0  0
 18 19  1  0  0  0  0
 18 24  2  0  0  0  0
 20 33  1  0  0  0  0
 20 34  1  0  0  0  0
 20 35  1  0  0  0  0
 21 22  2  0  0  0  0
 21 36  1  0  0  0  0
 22 24  1  0  0  0  0
 22 37  1  0  0  0  0
 23 38  1  0  0  0  0
 23 39  1  0  0  0  0
 24 40  1  0  0  0  0
M  END
>  <$CLUSTER>
575

>  <INDEX>
371659

$$$$
Lithuania 1775339
  MOE2020           3D

 52 55  0  0  1  0  0  0  0  0999 V2000
   -0.5410    1.6240   -0.1210 C   0  0  0  0  0  0  0  0  0  0  0  0
    0.1930   -1.2450   -0.4430 N   0  0  0  0  0  0  0  0  0  0  0  0
    0.6520   -0.4840    0.5080 C   0  0  0  0  0  0  0  0  0  0  0  0
    1.5300   -0.9050    1.4930 N   0  0  0  0  0  0  0  0  0  0  0  0
   -2.2020    3.2160   -1.6020 C   0  0  0  0  0  0  0  0  0  0  0  0
    0.3240    0.8490    0.6730 N   0  0  0  0  0  0  0  0  0  0  0  0
   -0.6990    2.9180    0.2490 N   0  0  0  0  0  0  0  0  0  0  0  0
   -1.5250    3.6800   -0.5000 C   0  0  0  0  0  0  0  0  0  0  0  0
   -1.1700    1.0860   -1.1930 N   0  0  0  0  0  0  0  0  0  0  0  0
    1.0930   -3.1770    0.9040 N   0  3  3  0  0  0  0  0  0  0  0  0
   -1.9830    1.8940   -1.9060 C   0  0  0  0  0  0  0  0  0  0  0  0
   -3.0530    4.0440   -2.3550 C   0  0  0  0  0  0  0  0  0  0  0  0
    0.6640   -2.6320   -0.4350 C   0  0  0  0  0  0  0  0  0  0  0  0
    2.0710   -2.2380    1.5410 C   0  0  0  0  0  0  0  0  0  0  0  0
   -1.7070    5.0380   -0.1330 C   0  0  0  0  0  0  0  0  0  0  0  0
   -3.2230    5.3760   -1.9830 C   0  0  0  0  0  0  0  0  0  0  0  0
   -2.5490    5.8740   -0.8710 C   0  0  0  0  0  0  0  0  0  0  0  0
    1.5950   -4.5860    0.8320 C   0  0  0  0  0  0  0  0  0  0  0  0
    0.4830   -5.5770    0.5370 C   0  0  0  0  0  0  0  0  0  0  0  0
   -1.6170   -7.3420   -0.0100 C   0  0  0  0  0  0  0  0  0  0  0  0
   -2.8840   -8.4250   -0.3570 Cl  0  0  0  0  0  0  0  0  0  0  0  0
   -1.2950   -7.0280    1.3090 C   0  0  0  0  0  0  0  0  0  0  0  0
   -0.9000   -6.7660   -1.0560 C   0  0  0  0  0  0  0  0  0  0  0  0
   -0.2530   -6.1430    1.5830 C   0  0  0  0  0  0  0  0  0  0  0  0
    0.1430   -5.8800   -0.7860 C   0  0  0  0  0  0  0  0  0  0  0  0
   -2.6930    1.2590   -3.1250 C   0  0  0  0  0  0  0  0  0  0  0  0
   -4.1250    6.2630   -2.7750 C   0  0  0  0  0  0  0  0  0  0  0  0
   -2.7220    7.3010   -0.4640 C   0  0  0  0  0  0  0  0  0  0  0  0
    1.8030   -0.2470    2.2090 H   0  0  0  0  0  0  0  0  0  0  0  0
    0.7560    1.3210    1.4540 H   0  0  0  0  0  0  0  0  0  0  0  0
    0.2770   -3.2320    1.4960 H   0  0  0  0  0  0  0  0  0  0  0  0
   -3.5720    3.6500   -3.2160 H   0  0  0  0  0  0  0  0  0  0  0  0
    1.5170   -2.6980   -1.1110 H   0  0  0  0  0  0  0  0  0  0  0  0
   -0.1450   -3.2610   -0.8070 H   0  0  0  0  0  0  0  0  0  0  0  0
    2.2370   -2.5290    2.5780 H   0  0  0  0  0  0  0  0  0  0  0  0
    3.0160   -2.2700    0.9990 H   0  0  0  0  0  0  0  0  0  0  0  0
   -1.1880    5.4310    0.7290 H   0  0  0  0  0  0  0  0  0  0  0  0
    2.0520   -4.8450    1.7870 H   0  0  0  0  0  0  0  0  0  0  0  0
    2.3430   -4.6520    0.0420 H   0  0  0  0  0  0  0  0  0  0  0  0
   -1.8540   -7.4710    2.1200 H   0  0  0  0  0  0  0  0  0  0  0  0
   -1.1520   -7.0060   -2.0780 H   0  0  0  0  0  0  0  0  0  0  0  0
   -0.0130   -5.8940    2.6060 H   0  0  0  0  0  0  0  0  0  0  0  0
    0.6890   -5.4270   -1.6000 H   0  0  0  0  0  0  0  0  0  0  0  0
   -3.3160    2.0080   -3.6140 H   0  0  0  0  0  0  0  0  0  0  0  0
   -3.3170    0.4300   -2.7910 H   0  0  0  0  0  0  0  0  0  0  0  0
   -1.9470    0.8920   -3.8290 H   0  0  0  0  0  0  0  0  0  0  0  0
   -4.5580    5.6970   -3.6000 H   0  0  0  0  0  0  0  0  0  0  0  0
   -3.5530    7.1020   -3.1710 H   0  0  0  0  0  0  0  0  0  0  0  0
   -4.9220    6.6370   -2.1330 H   0  0  0  0  0  0  0  0  0  0  0  0
   -2.1190    7.5020    0.4220 H   0  0  0  0  0  0  0  0  0  0  0  0
   -3.7720    7.4900   -0.2400 H   0  0  0  0  0  0  0  0  0  0  0  0
   -2.4010    7.9520   -1.2770 H   0  0  0  0  0  0  0  0  0  0  0  0
  1  6  1  0  0  0  0
  1  7  2  0  0  0  0
  1  9  1  0  0  0  0
  2  3  2  0  0  0  0
  2 13  1  0  0  0  0
  3  4  1  0  0  0  0
  3  6  1  0  0  0  0
  4 14  1  0  0  0  0
  4 29  1  0  0  0  0
  5  8  2  0  0  0  0
  5 11  1  0  0  0  0
  5 12  1  0  0  0  0
  6 30  1  0  0  0  0
  7  8  1  0  0  0  0
  8 15  1  0  0  0  0
  9 11  2  0  0  0  0
 10 13  1  0  0  0  0
 10 14  1  0  0  0  0
 10 18  1  0  0  0  0
 10 31  1  0  0  0  0
 11 26  1  0  0  0  0
 12 16  2  0  0  0  0
 12 32  1  0  0  0  0
 13 33  1  0  0  0  0
 13 34  1  0  0  0  0
 14 35  1  0  0  0  0
 14 36  1  0  0  0  0
 15 17  2  0  0  0  0
 15 37  1  0  0  0  0
 16 17  1  0  0  0  0
 16 27  1  0  0  0  0
 17 28  1  0  0  0  0
 18 19  1  0  0  0  0
 18 38  1  0  0  0  0
 18 39  1  0  0  0  0
 19 24  2  0  0  0  0
 19 25  1  0  0  0  0
 20 21  1  0  0  0  0
 20 22  2  0  0  0  0
 20 23  1  0  0  0  0
 22 24  1  0  0  0  0
 22 40  1  0  0  0  0
 23 25  2  0  0  0  0
 23 41  1  0  0  0  0
 24 42  1  0  0  0  0
 25 43  1  0  0  0  0
 26 44  1  0  0  0  0
 26 45  1  0  0  0  0
 26 46  1  0  0  0  0
 27 47  1  0  0  0  0
 27 48  1  0  0  0  0
 27 49  1  0  0  0  0
 28 50  1  0  0  0  0
 28 51  1  0  0  0  0
 28 52  1  0  0  0  0
M  CHG  1  10   1
M  END
>  <$CLUSTER>
576

>  <INDEX>
227412

$$$$
InterBioScreen STOCK5S-23424
  MOE2020           3D

 54 58  0  0  0  0  0  0  0  0999 V2000
    3.8130    0.7940   -0.0650 C   0  0  0  0  0  0  0  0  0  0  0  0
    4.2130    1.4860    1.1670 C   0  0  0  0  0  0  0  0  0  0  0  0
    5.4180    1.1130    1.7690 C   0  0  0  0  0  0  0  0  0  0  0  0
    6.2270    0.1010    1.2170 O   0  0  0  0  0  0  0  0  0  0  0  0
    5.8670   -0.5510    0.0430 C   0  0  0  0  0  0  0  0  0  0  0  0
    4.5970   -0.1480   -0.5740 C   0  0  0  0  0  0  0  0  0  0  0  0
    3.4790    2.5100    1.7770 C   0  0  0  0  0  0  0  0  0  0  0  0
    1.3060    0.7060   -0.0290 N   0  0  0  0  0  0  0  0  0  0  0  0
    5.8890    1.7160    2.9360 C   0  0  0  0  0  0  0  0  0  0  0  0
    2.5050    1.1530   -0.7520 C   0  0  0  0  0  0  0  0  0  0  0  0
    3.9380    3.1250    2.9490 C   0  0  0  0  0  0  0  0  0  0  0  0
   -1.3060   -0.7060    0.0290 N   0  0  0  0  0  0  0  0  0  0  0  0
    5.1420    2.7280    3.5280 C   0  0  0  0  0  0  0  0  0  0  0  0
    6.5690   -1.4220   -0.4560 O   0  0  0  0  0  0  0  0  0  0  0  0
   -2.5050   -1.1530    0.7520 C   0  0  0  0  0  0  0  0  0  0  0  0
    0.0820    1.2830   -0.6380 C   0  0  0  0  0  0  0  0  0  0  0  0
    1.2080   -0.7750   -0.0420 C   0  0  0  0  0  0  0  0  0  0  0  0
   -0.0820   -1.2830    0.6380 C   0  0  0  0  0  0  0  0  0  0  0  0
   -1.2080    0.7750    0.0430 C   0  0  0  0  0  0  0  0  0  0  0  0
   -2.8050   -2.6350    0.5980 C   0  0  0  0  0  0  0  0  0  0  0  0
    3.3220    4.2410    3.7120 C   0  0  0  0  0  0  0  0  0  0  0  0
    5.4470    3.5330    4.7220 C   0  0  0  0  0  0  0  0  0  0  0  0
    4.0740    4.1320    5.0410 C   0  0  0  0  0  0  0  0  0  0  0  0
   -2.4050   -3.5400    1.5790 C   0  0  0  0  0  0  0  0  0  0  0  0
   -3.4190   -3.1000   -0.5710 C   0  0  0  0  0  0  0  0  0  0  0  0
   -3.6800   -4.4640   -0.7280 C   0  0  0  0  0  0  0  0  0  0  0  0
   -2.6670   -4.9050    1.4210 C   0  0  0  0  0  0  0  0  0  0  0  0
   -3.3060   -5.3650    0.2700 C   0  0  0  0  0  0  0  0  0  0  0  0
    4.2870   -0.6410   -1.4840 H   0  0  0  0  0  0  0  0  0  0  0  0
    2.5460    2.8300    1.3380 H   0  0  0  0  0  0  0  0  0  0  0  0
    6.8240    1.4000    3.3750 H   0  0  0  0  0  0  0  0  0  0  0  0
    2.5000    0.6940   -1.7400 H   0  0  0  0  0  0  0  0  0  0  0  0
    2.4590    2.2370   -0.8550 H   0  0  0  0  0  0  0  0  0  0  0  0
   -3.3600   -0.5900    0.3780 H   0  0  0  0  0  0  0  0  0  0  0  0
   -2.3650   -0.9400    1.8120 H   0  0  0  0  0  0  0  0  0  0  0  0
    0.0530    1.0090   -1.6930 H   0  0  0  0  0  0  0  0  0  0  0  0
    0.1230    2.3680   -0.5460 H   0  0  0  0  0  0  0  0  0  0  0  0
    2.0680   -1.1880    0.4850 H   0  0  0  0  0  0  0  0  0  0  0  0
    1.2170   -1.1180   -1.0770 H   0  0  0  0  0  0  0  0  0  0  0  0
   -0.1230   -2.3680    0.5450 H   0  0  0  0  0  0  0  0  0  0  0  0
   -0.0530   -1.0090    1.6930 H   0  0  0  0  0  0  0  0  0  0  0  0
   -1.2160    1.1170    1.0780 H   0  0  0  0  0  0  0  0  0  0  0  0
   -2.0680    1.1880   -0.4830 H   0  0  0  0  0  0  0  0  0  0  0  0
    2.2500    4.0920    3.8440 H   0  0  0  0  0  0  0  0  0  0  0  0
    3.4990    5.2020    3.2290 H   0  0  0  0  0  0  0  0  0  0  0  0
    6.1800    4.3100    4.5030 H   0  0  0  0  0  0  0  0  0  0  0  0
    5.8110    2.9110    5.5400 H   0  0  0  0  0  0  0  0  0  0  0  0
    3.5310    3.4820    5.7280 H   0  0  0  0  0  0  0  0  0  0  0  0
    4.1900    5.1190    5.4890 H   0  0  0  0  0  0  0  0  0  0  0  0
   -1.8920   -3.1870    2.4620 H   0  0  0  0  0  0  0  0  0  0  0  0
   -3.6910   -2.4050   -1.3510 H   0  0  0  0  0  0  0  0  0  0  0  0
   -4.1710   -4.8210   -1.6210 H   0  0  0  0  0  0  0  0  0  0  0  0
   -2.3740   -5.6030    2.1910 H   0  0  0  0  0  0  0  0  0  0  0  0
   -3.5110   -6.4190    0.1510 H   0  0  0  0  0  0  0  0  0  0  0  0
  1  2  1  0  0  0  0
  1  6  2  0  0  0  0
  1 10  1  0  0  0  0
  2  3  2  0  0  0  0
  2  7  1  0  0  0  0
  3  4  1  0  0  0  0
  3  9  1  0  0  0  0
  4  5  1  0  0  0  0
  5  6  1  0  0  0  0
  5 14  2  0  0  0  0
  6 29  1  0  0  0  0
  7 11  2  0  0  0  0
  7 30  1  0  0  0  0
  8 10  1  0  0  0  0
  8 16  1  0  0  0  0
  8 17  1  0  0  0  0
  9 13  2  0  0  0  0
  9 31  1  0  0  0  0
 10 32  1  0  0  0  0
 10 33  1  0  0  0  0
 11 13  1  0  0  0  0
 11 21  1  0  0  0  0
 12 15  1  0  0  0  0
 12 18  1  0  0  0  0
 12 19  1  0  0  0  0
 13 22  1  0  0  0  0
 15 20  1  0  0  0  0
 15 34  1  0  0  0  0
 15 35  1  0  0  0  0
 16 19  1  0  0  0  0
 16 36  1  0  0  0  0
 16 37  1  0  0  0  0
 17 18  1  0  0  0  0
 17 38  1  0  0  0  0
 17 39  1  0  0  0  0
 18 40  1  0  0  0  0
 18 41  1  0  0  0  0
 19 42  1  0  0  0  0
 19 43  1  0  0  0  0
 20 24  1  0  0  0  0
 20 25  2  0  0  0  0
 21 23  1  0  0  0  0
 21 44  1  0  0  0  0
 21 45  1  0  0  0  0
 22 23  1  0  0  0  0
 22 46  1  0  0  0  0
 22 47  1  0  0  0  0
 23 48  1  0  0  0  0
 23 49  1  0  0  0  0
 24 27  2  0  0  0  0
 24 50  1  0  0  0  0
 25 26  1  0  0  0  0
 25 51  1  0  0  0  0
 26 28  2  0  0  0  0
 26 52  1  0  0  0  0
 27 28  1  0  0  0  0
 27 53  1  0  0  0  0
 28 54  1  0  0  0  0
M  END
>  <$CLUSTER>
577

>  <INDEX>
369075

$$$$
InterBioScreen STOCK4S-51757
  MOE2020           3D

 54 59  0  0  1  0  0  0  0  0999 V2000
    0.1850    0.8300    0.6820 C   0  0  1  0  0  0  0  0  0  0  0  0
   -0.1420    1.1510   -0.7920 C   0  0  1  0  0  0  0  0  0  0  0  0
   -0.1330   -0.1770   -1.5340 C   0  0  2  0  0  0  0  0  0  0  0  0
   -2.3300    0.6180   -1.4430 N   0  0  0  0  0  0  0  0  0  0  0  0
   -1.5300    1.6820   -1.0390 C   0  0  0  0  0  0  0  0  0  0  0  0
   -1.5920   -0.5440   -1.6550 C   0  0  0  0  0  0  0  0  0  0  0  0
    1.1720   -0.3300    0.5160 N   0  3  3  0  0  0  0  0  0  0  0  0
    0.9250    1.9930    1.3520 C   0  0  0  0  0  0  0  0  0  0  0  0
   -1.0300    0.4340    1.5350 C   0  0  0  0  0  0  0  0  0  0  0  0
    0.8180   -1.0810   -0.7700 C   0  0  1  0  0  0  0  0  0  0  0  0
    0.1070    2.2290    2.5090 N   0  0  0  0  0  0  0  0  0  0  0  0
   -0.9750    1.3620    2.5980 C   0  0  0  0  0  0  0  0  0  0  0  0
   -3.7490    0.7090   -1.6180 C   0  0  0  0  0  0  0  0  0  0  0  0
   -1.8130    2.8620   -0.8820 O   0  0  0  0  0  0  0  0  0  0  0  0
   -1.9780   -1.6740   -1.9190 O   0  0  0  0  0  0  0  0  0  0  0  0
   -1.9620   -0.4740    1.3890 C   0  0  0  0  0  0  0  0  0  0  0  0
    1.8930    2.5490    1.0190 O   0  0  0  0  0  0  0  0  0  0  0  0
   -1.9420    1.3270    3.5830 C   0  0  0  0  0  0  0  0  0  0  0  0
    1.3680   -1.3600    1.6110 C   0  0  0  0  0  0  0  0  0  0  0  0
   -4.4990    1.7170   -0.9880 C   0  0  0  0  0  0  0  0  0  0  0  0
   -4.4480   -0.2070   -2.4230 C   0  0  0  0  0  0  0  0  0  0  0  0
   -2.9540   -0.5310    2.3740 C   0  0  0  0  0  0  0  0  0  0  0  0
    0.3850   -2.4480   -0.2730 C   0  0  0  0  0  0  0  0  0  0  0  0
   -2.9440    0.3610    3.4620 C   0  0  0  0  0  0  0  0  0  0  0  0
   -5.8340   -0.1190   -2.5900 C   0  0  0  0  0  0  0  0  0  0  0  0
   -5.8860    1.8040   -1.1540 C   0  0  0  0  0  0  0  0  0  0  0  0
   -6.5540    0.8870   -1.9560 C   0  0  0  0  0  0  0  0  0  0  0  0
    1.3480   -2.6910    0.8770 C   0  0  0  0  0  0  0  0  0  0  0  0
   -4.0440   -1.5530    2.2760 C   0  0  0  0  0  0  0  0  0  0  0  0
   -8.0320    0.9780   -2.1370 C   0  0  0  0  0  0  0  0  0  0  0  0
    0.5830    1.9020   -1.1050 H   0  0  0  0  0  0  0  0  0  0  0  0
    0.2540   -0.2150   -2.5520 H   0  0  0  0  0  0  0  0  0  0  0  0
    2.0560    0.1590    0.5270 H   0  0  0  0  0  0  0  0  0  0  0  0
    1.5830   -1.2890   -1.5170 H   0  0  0  0  0  0  0  0  0  0  0  0
    0.2990    2.9510    3.1880 H   0  0  0  0  0  0  0  0  0  0  0  0
   -1.9650   -1.1490    0.5460 H   0  0  0  0  0  0  0  0  0  0  0  0
   -1.9240    2.0180    4.4130 H   0  0  0  0  0  0  0  0  0  0  0  0
    2.3220   -1.2110    2.1160 H   0  0  0  0  0  0  0  0  0  0  0  0
    0.5590   -1.3080    2.3400 H   0  0  0  0  0  0  0  0  0  0  0  0
   -3.9950    2.4390   -0.3630 H   0  0  0  0  0  0  0  0  0  0  0  0
   -3.9040   -0.9950   -2.9230 H   0  0  0  0  0  0  0  0  0  0  0  0
   -0.6480   -2.4340    0.0730 H   0  0  0  0  0  0  0  0  0  0  0  0
    0.4980   -3.2050   -1.0490 H   0  0  0  0  0  0  0  0  0  0  0  0
   -3.7190    0.2980    4.2120 H   0  0  0  0  0  0  0  0  0  0  0  0
   -6.3470   -0.8360   -3.2140 H   0  0  0  0  0  0  0  0  0  0  0  0
   -6.4390    2.5870   -0.6570 H   0  0  0  0  0  0  0  0  0  0  0  0
    2.3410   -2.9460    0.5060 H   0  0  0  0  0  0  0  0  0  0  0  0
    0.9860   -3.4880    1.5260 H   0  0  0  0  0  0  0  0  0  0  0  0
   -4.7190   -1.4470    3.1250 H   0  0  0  0  0  0  0  0  0  0  0  0
   -3.6070   -2.5520    2.2820 H   0  0  0  0  0  0  0  0  0  0  0  0
   -4.5990   -1.4050    1.3500 H   0  0  0  0  0  0  0  0  0  0  0  0
   -8.3670    0.1770   -2.7960 H   0  0  0  0  0  0  0  0  0  0  0  0
   -8.2850    1.9420   -2.5790 H   0  0  0  0  0  0  0  0  0  0  0  0
   -8.5230    0.8820   -1.1690 H   0  0  0  0  0  0  0  0  0  0  0  0
  1  2  1  0  0  0  0
  1  7  1  0  0  0  0
  1  8  1  0  0  0  0
  1  9  1  0  0  0  0
  2  3  1  0  0  0  0
  2  5  1  0  0  0  0
  2 31  1  0  0  0  0
  3  6  1  0  0  0  0
  3 10  1  0  0  0  0
  3 32  1  0  0  0  0
  4  5  1  0  0  0  0
  4  6  1  0  0  0  0
  4 13  1  0  0  0  0
  5 14  2  0  0  0  0
  6 15  2  0  0  0  0
  7 10  1  0  0  0  0
  7 19  1  0  0  0  0
  7 33  1  0  0  0  0
  8 11  1  0  0  0  0
  8 17  2  0  0  0  0
  9 12  2  0  0  0  0
  9 16  1  0  0  0  0
 10 23  1  0  0  0  0
 10 34  1  0  0  0  0
 11 12  1  0  0  0  0
 11 35  1  0  0  0  0
 12 18  1  0  0  0  0
 13 20  2  0  0  0  0
 13 21  1  0  0  0  0
 16 22  2  0  0  0  0
 16 36  1  0  0  0  0
 18 24  2  0  0  0  0
 18 37  1  0  0  0  0
 19 28  1  0  0  0  0
 19 38  1  0  0  0  0
 19 39  1  0  0  0  0
 20 26  1  0  0  0  0
 20 40  1  0  0  0  0
 21 25  2  0  0  0  0
 21 41  1  0  0  0  0
 22 24  1  0  0  0  0
 22 29  1  0  0  0  0
 23 28  1  0  0  0  0
 23 42  1  0  0  0  0
 23 43  1  0  0  0  0
 24 44  1  0  0  0  0
 25 27  1  0  0  0  0
 25 45  1  0  0  0  0
 26 27  2  0  0  0  0
 26 46  1  0  0  0  0
 27 30  1  0  0  0  0
 28 47  1  0  0  0  0
 28 48  1  0  0  0  0
 29 49  1  0  0  0  0
 29 50  1  0  0  0  0
 29 51  1  0  0  0  0
 30 52  1  0  0  0  0
 30 53  1  0  0  0  0
 30 54  1  0  0  0  0
M  CHG  1   7   1
M  END
>  <$CLUSTER>
578

>  <INDEX>
356672

$$$$
InterBioScreen STOCK5S-48404
  MOE2020           3D

 52 53  0  0  1  0  0  0  0  0999 V2000
    2.0290   -2.1850   -1.0370 N   0  0  0  0  0  0  0  0  0  0  0  0
    2.1050   -1.7970   -2.3520 N   0  0  0  0  0  0  0  0  0  0  0  0
    1.6850   -3.4840   -0.6550 C   0  0  0  0  0  0  0  0  0  0  0  0
    2.2410   -1.1110   -0.0280 C   0  0  2  0  0  0  0  0  0  0  0  0
    1.9040   -2.6280   -3.2640 N   0  0  0  0  0  0  0  0  0  0  0  0
    1.4600   -4.4200   -1.7620 C   0  0  0  0  0  0  0  0  0  0  0  0
    1.2280   -0.0040   -0.1430 C   0  0  0  0  0  0  0  0  0  0  0  0
   -0.0500   -0.4240    0.1840 N   0  0  0  0  0  0  0  0  0  0  0  0
   -1.2100    0.4600    0.1430 C   0  0  2  0  0  0  0  0  0  0  0  0
    1.5860   -3.9230   -2.9870 C   0  0  0  0  0  0  0  0  0  0  0  0
   -2.2300    0.0410    1.1970 C   0  0  0  0  0  0  0  0  0  0  0  0
    1.5830   -3.8860    0.4990 O   0  0  0  0  0  0  0  0  0  0  0  0
    3.6980   -0.6270   -0.1520 C   0  0  0  0  0  0  0  0  0  0  0  0
    1.5390    1.1270   -0.5060 O   0  0  0  0  0  0  0  0  0  0  0  0
   -3.2430   -0.6780    0.8880 O   0  0  0  0  0  0  0  0  0  0  0  0
   -1.8300    0.4530   -1.2510 C   0  0  0  0  0  0  0  0  0  0  0  0
   -2.0180    0.4760    2.4130 O   0  5  0  0  0  0  0  0  0  0  0  0
    1.1210   -5.7680   -1.5090 C   0  0  0  0  0  0  0  0  0  0  0  0
    4.1400    0.4620    0.8530 C   0  0  0  0  0  0  0  0  0  0  0  0
   -2.9720    1.4290   -1.4540 C   0  0  0  0  0  0  0  0  0  0  0  0
    1.3690   -4.7870   -4.1080 C   0  0  0  0  0  0  0  0  0  0  0  0
    0.9100   -6.6170   -2.5950 C   0  0  0  0  0  0  0  0  0  0  0  0
    4.0180   -0.0050    2.3060 C   0  0  0  0  0  0  0  0  0  0  0  0
    5.5820    0.8870    0.5680 C   0  0  0  0  0  0  0  0  0  0  0  0
   -2.5290    2.8900   -1.2850 C   0  0  0  0  0  0  0  0  0  0  0  0
   -3.6090    1.2410   -2.8270 C   0  0  0  0  0  0  0  0  0  0  0  0
    1.0340   -6.1260   -3.8940 C   0  0  0  0  0  0  0  0  0  0  0  0
    2.0840   -1.5060    0.9760 H   0  0  0  0  0  0  0  0  0  0  0  0
   -0.1850   -1.3850    0.4630 H   0  0  0  0  0  0  0  0  0  0  0  0
   -0.8880    1.4770    0.3670 H   0  0  0  0  0  0  0  0  0  0  0  0
    4.3490   -1.4910   -0.0150 H   0  0  0  0  0  0  0  0  0  0  0  0
    3.8320   -0.2270   -1.1570 H   0  0  0  0  0  0  0  0  0  0  0  0
   -1.0470    0.6960   -1.9700 H   0  0  0  0  0  0  0  0  0  0  0  0
   -2.2050   -0.5510   -1.4480 H   0  0  0  0  0  0  0  0  0  0  0  0
    1.0270   -6.1330   -0.4970 H   0  0  0  0  0  0  0  0  0  0  0  0
    3.4700    1.3120    0.7220 H   0  0  0  0  0  0  0  0  0  0  0  0
   -3.7080    1.2120   -0.6800 H   0  0  0  0  0  0  0  0  0  0  0  0
    1.4640   -4.4050   -5.1140 H   0  0  0  0  0  0  0  0  0  0  0  0
    0.6510   -7.6520   -2.4300 H   0  0  0  0  0  0  0  0  0  0  0  0
    4.6780   -0.8570    2.4700 H   0  0  0  0  0  0  0  0  0  0  0  0
    2.9880   -0.2990    2.5080 H   0  0  0  0  0  0  0  0  0  0  0  0
    4.3010    0.8080    2.9740 H   0  0  0  0  0  0  0  0  0  0  0  0
    6.2460    0.0330    0.7010 H   0  0  0  0  0  0  0  0  0  0  0  0
    5.8700    1.6810    1.2570 H   0  0  0  0  0  0  0  0  0  0  0  0
    5.6580    1.2500   -0.4570 H   0  0  0  0  0  0  0  0  0  0  0  0
   -1.7910    3.1360   -2.0480 H   0  0  0  0  0  0  0  0  0  0  0  0
   -2.0890    3.0240   -0.2970 H   0  0  0  0  0  0  0  0  0  0  0  0
   -3.3930    3.5460   -1.3900 H   0  0  0  0  0  0  0  0  0  0  0  0
   -2.8730    1.4580   -3.6020 H   0  0  0  0  0  0  0  0  0  0  0  0
   -4.4560    1.9190   -2.9300 H   0  0  0  0  0  0  0  0  0  0  0  0
   -3.9530    0.2120   -2.9300 H   0  0  0  0  0  0  0  0  0  0  0  0
    0.8710   -6.7820   -4.7360 H   0  0  0  0  0  0  0  0  0  0  0  0
  1  2  1  0  0  0  0
  1  3  1  0  0  0  0
  1  4  1  0  0  0  0
  2  5  2  0  0  0  0
  3  6  1  0  0  0  0
  3 12  2  0  0  0  0
  4  7  1  0  0  0  0
  4 13  1  0  0  0  0
  4 28  1  0  0  0  0
  5 10  1  0  0  0  0
  6 10  1  0  0  0  0
  6 18  2  0  0  0  0
  7  8  1  0  0  0  0
  7 14  2  0  0  0  0
  8  9  1  0  0  0  0
  8 29  1  0  0  0  0
  9 11  1  0  0  0  0
  9 16  1  0  0  0  0
  9 30  1  0  0  0  0
 10 21  2  0  0  0  0
 11 15  2  0  0  0  0
 11 17  1  0  0  0  0
 13 19  1  0  0  0  0
 13 31  1  0  0  0  0
 13 32  1  0  0  0  0
 16 20  1  0  0  0  0
 16 33  1  0  0  0  0
 16 34  1  0  0  0  0
 18 22  1  0  0  0  0
 18 35  1  0  0  0  0
 19 23  1  0  0  0  0
 19 24  1  0  0  0  0
 19 36  1  0  0  0  0
 20 25  1  0  0  0  0
 20 26  1  0  0  0  0
 20 37  1  0  0  0  0
 21 27  1  0  0  0  0
 21 38  1  0  0  0  0
 22 27  2  0  0  0  0
 22 39  1  0  0  0  0
 23 40  1  0  0  0  0
 23 41  1  0  0  0  0
 23 42  1  0  0  0  0
 24 43  1  0  0  0  0
 24 44  1  0  0  0  0
 24 45  1  0  0  0  0
 25 46  1  0  0  0  0
 25 47  1  0  0  0  0
 25 48  1  0  0  0  0
 26 49  1  0  0  0  0
 26 50  1  0  0  0  0
 26 51  1  0  0  0  0
 27 52  1  0  0  0  0
M  CHG  1  17  -1
M  END
>  <$CLUSTER>
579

>  <INDEX>
377557

$$$$
InterBioScreen STOCK5S-68987
  MOE2020           3D

 49 52  0  0  1  0  0  0  0  0999 V2000
    0.3250    1.5620    1.3470 N   0  0  0  0  0  0  0  0  0  0  0  0
   -0.0350    2.8850    1.0220 C   0  0  0  0  0  0  0  0  0  0  0  0
   -0.0070    1.0840    2.5940 C   0  0  0  0  0  0  0  0  0  0  0  0
   -0.7370    3.6310    2.0730 C   0  0  0  0  0  0  0  0  0  0  0  0
    0.1810   -0.4750   -0.0400 C   0  0  0  0  0  0  0  0  0  0  0  0
   -0.6250    1.7330    3.5260 N   0  0  0  0  0  0  0  0  0  0  0  0
    1.0370    0.7650    0.3380 C   0  0  2  0  0  0  0  0  0  0  0  0
   -1.0480   -0.2580   -0.6800 N   0  0  0  0  0  0  0  0  0  0  0  0
   -2.9750   -0.0250   -2.8740 N   0  0  0  0  0  0  0  0  0  0  0  0
   -0.9810    3.0200    3.2300 C   0  0  0  0  0  0  0  0  0  0  0  0
    0.1960    3.4370   -0.0500 O   0  0  0  0  0  0  0  0  0  0  0  0
    0.5790   -1.6180    0.1990 O   0  0  0  0  0  0  0  0  0  0  0  0
   -1.9070   -1.3920   -1.0000 C   0  0  0  0  0  0  0  0  0  0  0  0
   -1.5780    1.0580   -1.0320 C   0  0  0  0  0  0  0  0  0  0  0  0
   -2.0500    1.0680   -2.5200 C   0  0  0  0  0  0  0  0  0  0  0  0
   -2.3710   -1.3150   -2.4890 C   0  0  0  0  0  0  0  0  0  0  0  0
   -4.1600    0.1270   -3.4480 C   0  0  0  0  0  0  0  0  0  0  0  0
   -1.1390    4.9810    1.8310 C   0  0  0  0  0  0  0  0  0  0  0  0
    2.4120    0.3590    0.8680 C   0  0  0  0  0  0  0  0  0  0  0  0
   -1.6700    3.7320    4.2730 C   0  0  0  0  0  0  0  0  0  0  0  0
   -4.6700    1.3970   -3.7860 C   0  0  0  0  0  0  0  0  0  0  0  0
   -4.9890   -0.9720   -3.7560 C   0  0  0  0  0  0  0  0  0  0  0  0
   -1.8060    5.6770    2.8380 C   0  0  0  0  0  0  0  0  0  0  0  0
   -2.0720    5.0540    4.0580 C   0  0  0  0  0  0  0  0  0  0  0  0
   -5.9220    1.5600   -4.3920 C   0  0  0  0  0  0  0  0  0  0  0  0
   -6.2420   -0.8140   -4.3620 C   0  0  0  0  0  0  0  0  0  0  0  0
   -6.7090    0.4540   -4.6800 C   0  0  0  0  0  0  0  0  0  0  0  0
    0.2770    0.0660    2.8160 H   0  0  0  0  0  0  0  0  0  0  0  0
    1.1920    1.3600   -0.5620 H   0  0  0  0  0  0  0  0  0  0  0  0
   -1.3540   -2.3180   -0.8430 H   0  0  0  0  0  0  0  0  0  0  0  0
   -2.7810   -1.3760   -0.3490 H   0  0  0  0  0  0  0  0  0  0  0  0
   -2.4230    1.2910   -0.3840 H   0  0  0  0  0  0  0  0  0  0  0  0
   -0.7990    1.8080   -0.8960 H   0  0  0  0  0  0  0  0  0  0  0  0
   -1.1690    0.9890   -3.1570 H   0  0  0  0  0  0  0  0  0  0  0  0
   -2.5530    2.0160   -2.7120 H   0  0  0  0  0  0  0  0  0  0  0  0
   -3.1080   -2.1000   -2.6570 H   0  0  0  0  0  0  0  0  0  0  0  0
   -1.5030   -1.4890   -3.1260 H   0  0  0  0  0  0  0  0  0  0  0  0
   -0.9290    5.4540    0.8830 H   0  0  0  0  0  0  0  0  0  0  0  0
    2.2910   -0.2390    1.7710 H   0  0  0  0  0  0  0  0  0  0  0  0
    2.9910    1.2530    1.0990 H   0  0  0  0  0  0  0  0  0  0  0  0
    2.9340   -0.2270    0.1120 H   0  0  0  0  0  0  0  0  0  0  0  0
   -1.8760    3.2480    5.2170 H   0  0  0  0  0  0  0  0  0  0  0  0
   -4.0760    2.2730   -3.5710 H   0  0  0  0  0  0  0  0  0  0  0  0
   -4.6460   -1.9680   -3.5170 H   0  0  0  0  0  0  0  0  0  0  0  0
   -2.1170    6.6980    2.6740 H   0  0  0  0  0  0  0  0  0  0  0  0
   -2.5890    5.5940    4.8370 H   0  0  0  0  0  0  0  0  0  0  0  0
   -6.2760    2.5510   -4.6360 H   0  0  0  0  0  0  0  0  0  0  0  0
   -6.8470   -1.6810   -4.5820 H   0  0  0  0  0  0  0  0  0  0  0  0
   -7.6750    0.5780   -5.1470 H   0  0  0  0  0  0  0  0  0  0  0  0
  1  2  1  0  0  0  0
  1  3  1  0  0  0  0
  1  7  1  0  0  0  0
  2  4  1  0  0  0  0
  2 11  2  0  0  0  0
  3  6  2  0  0  0  0
  3 28  1  0  0  0  0
  4 10  1  0  0  0  0
  4 18  2  0  0  0  0
  5  7  1  0  0  0  0
  5  8  1  0  0  0  0
  5 12  2  0  0  0  0
  6 10  1  0  0  0  0
  7 19  1  0  0  0  0
  7 29  1  0  0  0  0
  8 13  1  0  0  0  0
  8 14  1  0  0  0  0
  9 15  1  0  0  0  0
  9 16  1  0  0  0  0
  9 17  1  0  0  0  0
 10 20  2  0  0  0  0
 13 16  1  0  0  0  0
 13 30  1  0  0  0  0
 13 31  1  0  0  0  0
 14 15  1  0  0  0  0
 14 32  1  0  0  0  0
 14 33  1  0  0  0  0
 15 34  1  0  0  0  0
 15 35  1  0  0  0  0
 16 36  1  0  0  0  0
 16 37  1  0  0  0  0
 17 21  2  0  0  0  0
 17 22  1  0  0  0  0
 18 23  1  0  0  0  0
 18 38  1  0  0  0  0
 19 39  1  0  0  0  0
 19 40  1  0  0  0  0
 19 41  1  0  0  0  0
 20 24  1  0  0  0  0
 20 42  1  0  0  0  0
 21 25  1  0  0  0  0
 21 43  1  0  0  0  0
 22 26  2  0  0  0  0
 22 44  1  0  0  0  0
 23 24  2  0  0  0  0
 23 45  1  0  0  0  0
 24 46  1  0  0  0  0
 25 27  2  0  0  0  0
 25 47  1  0  0  0  0
 26 27  1  0  0  0  0
 26 48  1  0  0  0  0
 27 49  1  0  0  0  0
M  END
>  <$CLUSTER>
580

>  <INDEX>
385024

$$$$
InterBioScreen STOCK5S-69072
  MOE2020           3D

 39 41  0  0  1  0  0  0  0  0999 V2000
    1.2400    0.8550    0.4160 C   0  0  0  0  0  0  0  0  0  0  0  0
    1.6620   -0.1480    1.2340 O   0  0  0  0  0  0  0  0  0  0  0  0
   -0.6020   -0.6300   -0.3550 C   0  0  0  0  0  0  0  0  0  0  0  0
    1.5470   -2.2780    2.3270 C   0  0  0  0  0  0  0  0  0  0  0  0
   -0.0180    0.6410   -0.3070 C   0  0  0  0  0  0  0  0  0  0  0  0
    0.7490   -1.2030    1.5990 C   0  0  3  0  0  0  0  0  0  0  0  0
    0.7470   -3.2380    2.9250 N   0  0  0  0  0  0  0  0  0  0  0  0
    0.0650   -1.7690    0.3570 C   0  0  0  0  0  0  0  0  0  0  0  0
    1.0610   -4.3780    3.6800 C   0  0  0  0  0  0  0  0  0  0  0  0
    0.0290   -5.2090    4.1750 C   0  0  0  0  0  0  0  0  0  0  0  0
   -0.6120    1.7120   -0.9820 C   0  0  0  0  0  0  0  0  0  0  0  0
    1.9000    1.8800    0.2750 O   0  0  0  0  0  0  0  0  0  0  0  0
   -1.7750   -0.8240   -1.0970 C   0  0  0  0  0  0  0  0  0  0  0  0
    2.7710   -2.2930    2.4000 O   0  0  0  0  0  0  0  0  0  0  0  0
    0.3590   -6.3480    4.9310 C   0  0  0  0  0  0  0  0  0  0  0  0
    2.3930   -4.7170    3.9610 C   0  0  0  0  0  0  0  0  0  0  0  0
   -2.3670    0.2480   -1.7640 C   0  0  0  0  0  0  0  0  0  0  0  0
   -1.7890    1.5150   -1.7060 C   0  0  0  0  0  0  0  0  0  0  0  0
    1.6870   -6.6670    5.1990 C   0  0  0  0  0  0  0  0  0  0  0  0
    2.7010   -5.8530    4.7140 C   0  0  0  0  0  0  0  0  0  0  0  0
   -3.9260    0.0080   -2.7350 Br  0  0  0  0  0  0  0  0  0  0  0  0
   -1.4270   -4.9210    3.9210 C   0  0  0  0  0  0  0  0  0  0  0  0
    2.0150   -7.8810    6.0040 C   0  0  0  0  0  0  0  0  0  0  0  0
   -0.0360   -0.8210    2.2520 H   0  0  0  0  0  0  0  0  0  0  0  0
   -0.2430   -3.0900    2.7930 H   0  0  0  0  0  0  0  0  0  0  0  0
    0.8050   -2.2330   -0.2960 H   0  0  0  0  0  0  0  0  0  0  0  0
   -0.6780   -2.5110    0.6480 H   0  0  0  0  0  0  0  0  0  0  0  0
   -0.1600    2.6920   -0.9430 H   0  0  0  0  0  0  0  0  0  0  0  0
   -2.2210   -1.8060   -1.1520 H   0  0  0  0  0  0  0  0  0  0  0  0
   -0.4280   -6.9840    5.3090 H   0  0  0  0  0  0  0  0  0  0  0  0
    3.1910   -4.0910    3.5900 H   0  0  0  0  0  0  0  0  0  0  0  0
   -2.2520    2.3440   -2.2210 H   0  0  0  0  0  0  0  0  0  0  0  0
    3.7320   -6.0990    4.9190 H   0  0  0  0  0  0  0  0  0  0  0  0
   -1.5190   -4.0130    3.3260 H   0  0  0  0  0  0  0  0  0  0  0  0
   -1.9420   -4.7860    4.8720 H   0  0  0  0  0  0  0  0  0  0  0  0
   -1.8740   -5.7560    3.3810 H   0  0  0  0  0  0  0  0  0  0  0  0
    1.0930   -8.3860    6.2920 H   0  0  0  0  0  0  0  0  0  0  0  0
    2.5630   -7.5860    6.8990 H   0  0  0  0  0  0  0  0  0  0  0  0
    2.6290   -8.5570    5.4090 H   0  0  0  0  0  0  0  0  0  0  0  0
  1  2  1  0  0  0  0
  1  5  1  0  0  0  0
  1 12  2  0  0  0  0
  2  6  1  0  0  0  0
  3  5  2  0  0  0  0
  3  8  1  0  0  0  0
  3 13  1  0  0  0  0
  4  6  1  0  0  0  0
  4  7  1  0  0  0  0
  4 14  2  0  0  0  0
  5 11  1  0  0  0  0
  6  8  1  0  0  0  0
  6 24  1  0  0  0  0
  7  9  1  0  0  0  0
  7 25  1  0  0  0  0
  8 26  1  0  0  0  0
  8 27  1  0  0  0  0
  9 10  2  0  0  0  0
  9 16  1  0  0  0  0
 10 15  1  0  0  0  0
 10 22  1  0  0  0  0
 11 18  2  0  0  0  0
 11 28  1  0  0  0  0
 13 17  2  0  0  0  0
 13 29  1  0  0  0  0
 15 19  2  0  0  0  0
 15 30  1  0  0  0  0
 16 20  2  0  0  0  0
 16 31  1  0  0  0  0
 17 18  1  0  0  0  0
 17 21  1  0  0  0  0
 18 32  1  0  0  0  0
 19 20  1  0  0  0  0
 19 23  1  0  0  0  0
 20 33  1  0  0  0  0
 22 34  1  0  0  0  0
 22 35  1  0  0  0  0
 22 36  1  0  0  0  0
 23 37  1  0  0  0  0
 23 38  1  0  0  0  0
 23 39  1  0  0  0  0
M  END
>  <$CLUSTER>
581

>  <INDEX>
385063

$$$$
InterBioScreen STOCK5S-67173
  MOE2020           3D

 40 43  0  0  1  0  0  0  0  0999 V2000
    0.1330   -0.7500    0.3270 C   0  0  0  0  0  0  0  0  0  0  0  0
   -0.2240    0.1900   -0.5910 N   0  0  0  0  0  0  0  0  0  0  0  0
    0.0030   -0.2440    1.5320 N   0  0  0  0  0  0  0  0  0  0  0  0
   -0.6590    1.3170   -0.0140 N   0  0  0  0  0  0  0  0  0  0  0  0
   -0.1240    0.0100   -2.0240 C   0  0  3  0  0  0  0  0  0  0  0  0
   -0.4930    1.0070    1.2760 C   0  0  0  0  0  0  0  0  0  0  0  0
    0.5910   -1.9850   -0.0600 N   0  0  0  0  0  0  0  0  0  0  0  0
    1.1780    0.6050   -2.5580 C   0  0  0  0  0  0  0  0  0  0  0  0
    0.5450   -2.3830   -1.3830 C   0  0  0  0  0  0  0  0  0  0  0  0
   -0.2350   -1.4850   -2.3410 C   0  0  0  0  0  0  0  0  0  0  0  0
    1.2350    1.9700   -2.5020 N   0  0  0  0  0  0  0  0  0  0  0  0
   -0.8100    1.9290    2.3840 C   0  0  0  0  0  0  0  0  0  0  0  0
    2.1170   -0.0450   -3.0350 O   0  0  0  0  0  0  0  0  0  0  0  0
    1.0210   -3.4520   -1.7680 O   0  0  0  0  0  0  0  0  0  0  0  0
   -0.6160    1.5330    3.7160 C   0  0  0  0  0  0  0  0  0  0  0  0
   -1.3090    3.2150    2.1300 C   0  0  0  0  0  0  0  0  0  0  0  0
    2.2090    2.9020   -2.8740 C   0  0  0  0  0  0  0  0  0  0  0  0
   -1.4110    3.6770    4.5030 C   0  0  0  0  0  0  0  0  0  0  0  0
    4.1190    4.8300   -3.6000 C   0  0  0  0  0  0  0  0  0  0  0  0
   -0.9160    2.4030    4.7680 C   0  0  0  0  0  0  0  0  0  0  0  0
   -1.6080    4.0830    3.1850 C   0  0  0  0  0  0  0  0  0  0  0  0
    4.9720    5.8030   -3.9170 F   0  0  0  0  0  0  0  0  0  0  0  0
   -1.7690    4.7250    5.7940 Cl  0  0  0  0  0  0  0  0  0  0  0  0
    3.4250    2.5140   -3.4450 C   0  0  0  0  0  0  0  0  0  0  0  0
    1.9630    4.2680   -2.6710 C   0  0  0  0  0  0  0  0  0  0  0  0
    2.9120    5.2270   -3.0320 C   0  0  0  0  0  0  0  0  0  0  0  0
    4.3740    3.4770   -3.8070 C   0  0  0  0  0  0  0  0  0  0  0  0
   -0.9380    0.5390   -2.5200 H   0  0  0  0  0  0  0  0  0  0  0  0
    0.9680   -2.6140    0.6340 H   0  0  0  0  0  0  0  0  0  0  0  0
    0.1430   -1.6500   -3.3500 H   0  0  0  0  0  0  0  0  0  0  0  0
   -1.2870   -1.7680   -2.2960 H   0  0  0  0  0  0  0  0  0  0  0  0
    0.4040    2.3910   -2.1120 H   0  0  0  0  0  0  0  0  0  0  0  0
   -0.2310    0.5470    3.9300 H   0  0  0  0  0  0  0  0  0  0  0  0
   -1.4640    3.5380    1.1110 H   0  0  0  0  0  0  0  0  0  0  0  0
   -0.7630    2.0860    5.7890 H   0  0  0  0  0  0  0  0  0  0  0  0
   -1.9930    5.0710    2.9770 H   0  0  0  0  0  0  0  0  0  0  0  0
    3.6330    1.4670   -3.6070 H   0  0  0  0  0  0  0  0  0  0  0  0
    1.0280    4.5820   -2.2300 H   0  0  0  0  0  0  0  0  0  0  0  0
    2.7090    6.2750   -2.8710 H   0  0  0  0  0  0  0  0  0  0  0  0
    5.3100    3.1690   -4.2500 H   0  0  0  0  0  0  0  0  0  0  0  0
  1  2  1  0  0  0  0
  1  3  2  0  0  0  0
  1  7  1  0  0  0  0
  2  4  1  0  0  0  0
  2  5  1  0  0  0  0
  3  6  1  0  0  0  0
  4  6  2  0  0  0  0
  5  8  1  0  0  0  0
  5 10  1  0  0  0  0
  5 28  1  0  0  0  0
  6 12  1  0  0  0  0
  7  9  1  0  0  0  0
  7 29  1  0  0  0  0
  8 11  1  0  0  0  0
  8 13  2  0  0  0  0
  9 10  1  0  0  0  0
  9 14  2  0  0  0  0
 10 30  1  0  0  0  0
 10 31  1  0  0  0  0
 11 17  1  0  0  0  0
 11 32  1  0  0  0  0
 12 15  2  0  0  0  0
 12 16  1  0  0  0  0
 15 20  1  0  0  0  0
 15 33  1  0  0  0  0
 16 21  2  0  0  0  0
 16 34  1  0  0  0  0
 17 24  1  0  0  0  0
 17 25  2  0  0  0  0
 18 20  2  0  0  0  0
 18 21  1  0  0  0  0
 18 23  1  0  0  0  0
 19 22  1  0  0  0  0
 19 26  2  0  0  0  0
 19 27  1  0  0  0  0
 20 35  1  0  0  0  0
 21 36  1  0  0  0  0
 24 27  2  0  0  0  0
 24 37  1  0  0  0  0
 25 26  1  0  0  0  0
 25 38  1  0  0  0  0
 26 39  1  0  0  0  0
 27 40  1  0  0  0  0
M  END
>  <$CLUSTER>
582

>  <INDEX>
384324

$$$$
Cerep CER0099275
  MOE2020           3D

 48 51  0  0  0  0  0  0  0  0999 V2000
   -0.0880    0.1720    0.1570 C   0  0  0  0  0  0  0  0  0  0  0  0
    1.0850    0.8290    0.8240 C   0  0  0  0  0  0  0  0  0  0  0  0
   -3.3900   -1.7470   -1.7970 C   0  0  0  0  0  0  0  0  0  0  0  0
   -3.2120   -3.0320   -2.2610 N   0  0  0  0  0  0  0  0  0  0  0  0
    0.1350   -0.8370   -0.7790 C   0  0  0  0  0  0  0  0  0  0  0  0
   -2.2300   -1.1070   -1.1350 C   0  0  0  0  0  0  0  0  0  0  0  0
   -0.9180   -1.4770   -1.4250 C   0  0  0  0  0  0  0  0  0  0  0  0
   -3.3050   -5.9600   -2.2170 N   0  3  0  0  0  0  0  0  0  0  0  0
   -1.4150    0.5370    0.4420 C   0  0  0  0  0  0  0  0  0  0  0  0
   -1.3100   -9.8950   -3.3300 C   0  0  0  0  0  0  0  0  0  0  0  0
   -0.2350   -9.9660   -2.4470 C   0  0  0  0  0  0  0  0  0  0  0  0
   -1.1600  -10.7070   -4.3860 O   0  0  0  0  0  0  0  0  0  0  0  0
    0.7080  -10.8230   -2.8590 O   0  0  0  0  0  0  0  0  0  0  0  0
   -2.4780   -0.1010   -0.2020 C   0  0  0  0  0  0  0  0  0  0  0  0
    0.1260  -11.3020   -4.0930 C   0  0  0  0  0  0  0  0  0  0  0  0
   -4.4530   -1.1410   -1.8980 O   0  0  0  0  0  0  0  0  0  0  0  0
   -2.3820   -9.0430   -3.0600 C   0  0  0  0  0  0  0  0  0  0  0  0
   -4.3090   -3.7450   -2.9280 C   0  0  0  0  0  0  0  0  0  0  0  0
   -1.9640   -3.8090   -2.1630 C   0  0  0  0  0  0  0  0  0  0  0  0
   -2.3870   -8.2690   -1.8960 C   0  0  0  0  0  0  0  0  0  0  0  0
   -3.5370   -7.3130   -1.6190 C   0  0  0  0  0  0  0  0  0  0  0  0
    1.8590   -0.0490    1.5290 F   0  0  0  0  0  0  0  0  0  0  0  0
    1.9280    1.4410   -0.0590 F   0  0  0  0  0  0  0  0  0  0  0  0
    0.7330    1.8000    1.7190 F   0  0  0  0  0  0  0  0  0  0  0  0
   -0.2270   -9.1820   -1.2960 C   0  0  0  0  0  0  0  0  0  0  0  0
   -4.5770   -5.1340   -2.2830 C   0  0  0  0  0  0  0  0  0  0  0  0
   -2.1990   -5.1990   -1.5070 C   0  0  0  0  0  0  0  0  0  0  0  0
    1.3900   -1.2080   -1.0720 F   0  0  0  0  0  0  0  0  0  0  0  0
   -1.2970   -8.3280   -1.0230 C   0  0  0  0  0  0  0  0  0  0  0  0
   -0.7200   -2.2560   -2.1470 H   0  0  0  0  0  0  0  0  0  0  0  0
   -3.0000   -6.1230   -3.1660 H   0  0  0  0  0  0  0  0  0  0  0  0
   -1.6140    1.3160    1.1630 H   0  0  0  0  0  0  0  0  0  0  0  0
   -3.4950    0.1860    0.0230 H   0  0  0  0  0  0  0  0  0  0  0  0
    0.8090  -11.0710   -4.9110 H   0  0  0  0  0  0  0  0  0  0  0  0
   -0.0010  -12.3820   -4.0200 H   0  0  0  0  0  0  0  0  0  0  0  0
   -3.2090   -8.9820   -3.7520 H   0  0  0  0  0  0  0  0  0  0  0  0
   -4.0500   -3.8880   -3.9770 H   0  0  0  0  0  0  0  0  0  0  0  0
   -5.2150   -3.1430   -2.8570 H   0  0  0  0  0  0  0  0  0  0  0  0
   -1.2470   -3.2510   -1.5600 H   0  0  0  0  0  0  0  0  0  0  0  0
   -1.5600   -3.9550   -3.1650 H   0  0  0  0  0  0  0  0  0  0  0  0
   -4.4510   -7.7310   -2.0410 H   0  0  0  0  0  0  0  0  0  0  0  0
   -3.6520   -7.2050   -0.5400 H   0  0  0  0  0  0  0  0  0  0  0  0
    0.6080   -9.2350   -0.6140 H   0  0  0  0  0  0  0  0  0  0  0  0
   -4.9610   -4.9900   -1.2730 H   0  0  0  0  0  0  0  0  0  0  0  0
   -5.3170   -5.6670   -2.8800 H   0  0  0  0  0  0  0  0  0  0  0  0
   -1.2770   -5.7780   -1.5610 H   0  0  0  0  0  0  0  0  0  0  0  0
   -2.4780   -5.0570   -0.4630 H   0  0  0  0  0  0  0  0  0  0  0  0
   -1.2830   -7.7120   -0.1360 H   0  0  0  0  0  0  0  0  0  0  0  0
  1  2  1  0  0  0  0
  1  5  1  0  0  0  0
  1  9  2  0  0  0  0
  2 22  1  0  0  0  0
  2 23  1  0  0  0  0
  2 24  1  0  0  0  0
  3  4  1  0  0  0  0
  3  6  1  0  0  0  0
  3 16  2  0  0  0  0
  4 18  1  0  0  0  0
  4 19  1  0  0  0  0
  5  7  2  0  0  0  0
  5 28  1  0  0  0  0
  6  7  1  0  0  0  0
  6 14  2  0  0  0  0
  7 30  1  0  0  0  0
  8 21  1  0  0  0  0
  8 26  1  0  0  0  0
  8 27  1  0  0  0  0
  8 31  1  0  0  0  0
  9 14  1  0  0  0  0
  9 32  1  0  0  0  0
 10 11  1  0  0  0  0
 10 12  1  0  0  0  0
 10 17  2  0  0  0  0
 11 13  1  0  0  0  0
 11 25  2  0  0  0  0
 12 15  1  0  0  0  0
 13 15  1  0  0  0  0
 14 33  1  0  0  0  0
 15 34  1  0  0  0  0
 15 35  1  0  0  0  0
 17 20  1  0  0  0  0
 17 36  1  0  0  0  0
 18 26  1  0  0  0  0
 18 37  1  0  0  0  0
 18 38  1  0  0  0  0
 19 27  1  0  0  0  0
 19 39  1  0  0  0  0
 19 40  1  0  0  0  0
 20 21  1  0  0  0  0
 20 29  2  0  0  0  0
 21 41  1  0  0  0  0
 21 42  1  0  0  0  0
 25 29  1  0  0  0  0
 25 43  1  0  0  0  0
 26 44  1  0  0  0  0
 26 45  1  0  0  0  0
 27 46  1  0  0  0  0
 27 47  1  0  0  0  0
 29 48  1  0  0  0  0
M  CHG  1   8   1
M  END
>  <$CLUSTER>
583

>  <INDEX>
187005

$$$$
InterBioScreen STOCK5S-80165
  MOE2020           3D

 44 47  0  0  0  0  0  0  0  0999 V2000
    1.1910    0.0320    0.0440 C   0  0  0  0  0  0  0  0  0  0  0  0
    0.3990   -1.0860   -0.0410 C   0  0  0  0  0  0  0  0  0  0  0  0
    2.6280   -0.0590    0.0660 C   0  0  0  0  0  0  0  0  0  0  0  0
    3.0970   -1.3690   -0.0070 N   0  0  0  0  0  0  0  0  0  0  0  0
    0.3660    1.1280    0.0970 N   0  0  0  0  0  0  0  0  0  0  0  0
    2.3190   -2.4990   -0.0930 N   0  0  0  0  0  0  0  0  0  0  0  0
   -0.9570   -0.6800   -0.0410 C   0  0  0  0  0  0  0  0  0  0  0  0
    1.0260   -2.3750   -0.1100 C   0  0  0  0  0  0  0  0  0  0  0  0
   -0.9580    0.7200    0.0460 C   0  0  0  0  0  0  0  0  0  0  0  0
    4.5570   -1.7660   -0.0040 C   0  0  0  0  0  0  0  0  0  0  0  0
    3.3880    0.9040    0.1400 O   0  0  0  0  0  0  0  0  0  0  0  0
   -2.1580    1.4520    0.0690 C   0  0  0  0  0  0  0  0  0  0  0  0
   -2.1870   -1.3650   -0.1070 C   0  0  0  0  0  0  0  0  0  0  0  0
    5.5820   -0.8090    0.0750 C   0  0  0  0  0  0  0  0  0  0  0  0
    0.8280    2.4960    0.1910 C   0  0  0  0  0  0  0  0  0  0  0  0
   -3.3820   -0.6390   -0.0850 C   0  0  0  0  0  0  0  0  0  0  0  0
   -3.3650    0.7490    0.0020 C   0  0  0  0  0  0  0  0  0  0  0  0
    0.1400   -3.6170   -0.2040 C   0  0  0  0  0  0  0  0  0  0  0  0
    6.9310   -1.1810    0.0780 C   0  0  0  0  0  0  0  0  0  0  0  0
    4.9530   -3.1200   -0.0820 C   0  0  0  0  0  0  0  0  0  0  0  0
   -4.5160   -1.4250   -0.1550 O   0  0  0  0  0  0  0  0  0  0  0  0
    6.3000   -3.4940   -0.0800 C   0  0  0  0  0  0  0  0  0  0  0  0
    7.2910   -2.5220    0.0000 C   0  0  0  0  0  0  0  0  0  0  0  0
    7.9910   -0.1290    0.1640 C   0  0  0  0  0  0  0  0  0  0  0  0
   -5.7680   -0.7500   -0.1370 C   0  0  0  0  0  0  0  0  0  0  0  0
   -2.1480    2.5300    0.1370 H   0  0  0  0  0  0  0  0  0  0  0  0
   -2.2060   -2.4430   -0.1740 H   0  0  0  0  0  0  0  0  0  0  0  0
    5.3230    0.2380    0.1350 H   0  0  0  0  0  0  0  0  0  0  0  0
    1.9180    2.5110    0.2130 H   0  0  0  0  0  0  0  0  0  0  0  0
    0.4400    2.9490    1.1030 H   0  0  0  0  0  0  0  0  0  0  0  0
    0.4740    3.0590   -0.6730 H   0  0  0  0  0  0  0  0  0  0  0  0
   -4.2980    1.2920    0.0180 H   0  0  0  0  0  0  0  0  0  0  0  0
   -0.9080   -3.3170   -0.2050 H   0  0  0  0  0  0  0  0  0  0  0  0
    0.3310   -4.2650    0.6510 H   0  0  0  0  0  0  0  0  0  0  0  0
    0.3650   -4.1550   -1.1250 H   0  0  0  0  0  0  0  0  0  0  0  0
    4.1950   -3.8870   -0.1450 H   0  0  0  0  0  0  0  0  0  0  0  0
    6.5710   -4.5380   -0.1410 H   0  0  0  0  0  0  0  0  0  0  0  0
    8.3330   -2.8060    0.0020 H   0  0  0  0  0  0  0  0  0  0  0  0
    7.5240    0.8540    0.2170 H   0  0  0  0  0  0  0  0  0  0  0  0
    8.6270   -0.1810   -0.7190 H   0  0  0  0  0  0  0  0  0  0  0  0
    8.5940   -0.2930    1.0570 H   0  0  0  0  0  0  0  0  0  0  0  0
   -6.5750   -1.4800   -0.1970 H   0  0  0  0  0  0  0  0  0  0  0  0
   -5.8270   -0.0720   -0.9880 H   0  0  0  0  0  0  0  0  0  0  0  0
   -5.8610   -0.1810    0.7880 H   0  0  0  0  0  0  0  0  0  0  0  0
  1  2  2  0  0  0  0
  1  3  1  0  0  0  0
  1  5  1  0  0  0  0
  2  7  1  0  0  0  0
  2  8  1  0  0  0  0
  3  4  1  0  0  0  0
  3 11  2  0  0  0  0
  4  6  1  0  0  0  0
  4 10  1  0  0  0  0
  5  9  1  0  0  0  0
  5 15  1  0  0  0  0
  6  8  2  0  0  0  0
  7  9  2  0  0  0  0
  7 13  1  0  0  0  0
  8 18  1  0  0  0  0
  9 12  1  0  0  0  0
 10 14  2  0  0  0  0
 10 20  1  0  0  0  0
 12 17  2  0  0  0  0
 12 26  1  0  0  0  0
 13 16  2  0  0  0  0
 13 27  1  0  0  0  0
 14 19  1  0  0  0  0
 14 28  1  0  0  0  0
 15 29  1  0  0  0  0
 15 30  1  0  0  0  0
 15 31  1  0  0  0  0
 16 17  1  0  0  0  0
 16 21  1  0  0  0  0
 17 32  1  0  0  0  0
 18 33  1  0  0  0  0
 18 34  1  0  0  0  0
 18 35  1  0  0  0  0
 19 23  2  0  0  0  0
 19 24  1  0  0  0  0
 20 22  2  0  0  0  0
 20 36  1  0  0  0  0
 21 25  1  0  0  0  0
 22 23  1  0  0  0  0
 22 37  1  0  0  0  0
 23 38  1  0  0  0  0
 24 39  1  0  0  0  0
 24 40  1  0  0  0  0
 24 41  1  0  0  0  0
 25 42  1  0  0  0  0
 25 43  1  0  0  0  0
 25 44  1  0  0  0  0
M  END
>  <$CLUSTER>
584

>  <INDEX>
389297

$$$$
InterBioScreen STOCK5S-68320
  MOE2020           3D

 48 50  0  0  0  0  0  0  0  0999 V2000
    0.6680    0.7030    0.9010 C   0  0  0  0  0  0  0  0  0  0  0  0
   -0.1530    0.6660   -0.2230 N   0  0  0  0  0  0  0  0  0  0  0  0
   -0.3680   -0.5860   -0.4950 C   0  0  0  0  0  0  0  0  0  0  0  0
    1.0860    1.8600    1.4530 C   0  0  0  0  0  0  0  0  0  0  0  0
   -1.1320   -1.0780   -1.5330 N   0  0  0  0  0  0  0  0  0  0  0  0
    0.9620   -0.6720    1.3280 C   0  0  0  0  0  0  0  0  0  0  0  0
    0.2890   -1.5000    0.4220 C   0  0  0  0  0  0  0  0  0  0  0  0
   -1.8090   -0.3000   -2.4730 C   0  0  0  0  0  0  0  0  0  0  0  0
    0.6890    3.2020    0.8850 C   0  0  0  0  0  0  0  0  0  0  0  0
    1.9720    1.9600    2.6640 C   0  0  0  0  0  0  0  0  0  0  0  0
    2.6270    1.9240    3.5600 N   0  0  0  0  0  0  0  0  0  0  0  0
   -2.5500   -1.1490   -3.4730 C   0  0  0  0  0  0  0  0  0  0  0  0
   -1.8280    0.9260   -2.5240 O   0  0  0  0  0  0  0  0  0  0  0  0
   -0.0730    3.1960   -0.1580 O   0  0  0  0  0  0  0  0  0  0  0  0
    1.1060    4.3230    1.4380 N   0  0  0  0  0  0  0  0  0  0  0  0
   -3.0280   -2.4090   -3.2220 C   0  0  0  0  0  0  0  0  0  0  0  0
   -2.8110   -0.5310   -4.7300 C   0  0  0  0  0  0  0  0  0  0  0  0
   -3.9740   -2.5240   -5.4460 C   0  0  0  0  0  0  0  0  0  0  0  0
   -3.5140   -1.2360   -5.7080 C   0  0  0  0  0  0  0  0  0  0  0  0
   -3.7330   -3.1090   -4.2030 C   0  0  0  0  0  0  0  0  0  0  0  0
   -4.6340   -3.1290   -6.4350 F   0  0  0  0  0  0  0  0  0  0  0  0
    1.6970   -1.2490    2.3450 C   0  0  0  0  0  0  0  0  0  0  0  0
    0.3150   -2.8770    0.4820 C   0  0  0  0  0  0  0  0  0  0  0  0
    0.8370    5.6560    1.0470 C   0  0  0  0  0  0  0  0  0  0  0  0
   -0.4710    6.1510    1.6340 C   0  0  0  0  0  0  0  0  0  0  0  0
   -0.7900    7.5850    1.2170 C   0  0  0  0  0  0  0  0  0  0  0  0
    1.7430   -2.6470    2.4330 C   0  0  0  0  0  0  0  0  0  0  0  0
    1.0580   -3.4540    1.5100 C   0  0  0  0  0  0  0  0  0  0  0  0
   -2.0980    8.0700    1.8080 C   0  0  0  0  0  0  0  0  0  0  0  0
   -1.2070   -2.0810   -1.6190 H   0  0  0  0  0  0  0  0  0  0  0  0
    1.6970    4.2160    2.2500 H   0  0  0  0  0  0  0  0  0  0  0  0
   -2.8580   -2.8640   -2.2570 H   0  0  0  0  0  0  0  0  0  0  0  0
   -2.4680    0.4740   -4.9240 H   0  0  0  0  0  0  0  0  0  0  0  0
   -3.7020   -0.7820   -6.6700 H   0  0  0  0  0  0  0  0  0  0  0  0
   -4.0930   -4.1070   -3.9990 H   0  0  0  0  0  0  0  0  0  0  0  0
    2.2260   -0.6350    3.0590 H   0  0  0  0  0  0  0  0  0  0  0  0
   -0.2170   -3.4820   -0.2370 H   0  0  0  0  0  0  0  0  0  0  0  0
    1.6470    6.2980    1.3940 H   0  0  0  0  0  0  0  0  0  0  0  0
    0.7780    5.7020   -0.0400 H   0  0  0  0  0  0  0  0  0  0  0  0
   -1.2760    5.5000    1.2930 H   0  0  0  0  0  0  0  0  0  0  0  0
   -0.4050    6.1090    2.7210 H   0  0  0  0  0  0  0  0  0  0  0  0
    0.0140    8.2380    1.5580 H   0  0  0  0  0  0  0  0  0  0  0  0
   -0.8570    7.6290    0.1300 H   0  0  0  0  0  0  0  0  0  0  0  0
    2.3140   -3.1110    3.2230 H   0  0  0  0  0  0  0  0  0  0  0  0
    1.1070   -4.5290    1.5980 H   0  0  0  0  0  0  0  0  0  0  0  0
   -2.0420    8.0300    2.8960 H   0  0  0  0  0  0  0  0  0  0  0  0
   -2.9110    7.4320    1.4630 H   0  0  0  0  0  0  0  0  0  0  0  0
   -2.2820    9.0960    1.4910 H   0  0  0  0  0  0  0  0  0  0  0  0
  1  2  1  0  0  0  0
  1  4  2  0  0  0  0
  1  6  1  0  0  0  0
  2  3  2  0  0  0  0
  3  5  1  0  0  0  0
  3  7  1  0  0  0  0
  4  9  1  0  0  0  0
  4 10  1  0  0  0  0
  5  8  1  0  0  0  0
  5 30  1  0  0  0  0
  6  7  1  0  0  0  0
  6 22  2  0  0  0  0
  7 23  2  0  0  0  0
  8 12  1  0  0  0  0
  8 13  2  0  0  0  0
  9 14  2  0  0  0  0
  9 15  1  0  0  0  0
 10 11  3  0  0  0  0
 12 16  1  0  0  0  0
 12 17  2  0  0  0  0
 15 24  1  0  0  0  0
 15 31  1  0  0  0  0
 16 20  2  0  0  0  0
 16 32  1  0  0  0  0
 17 19  1  0  0  0  0
 17 33  1  0  0  0  0
 18 19  2  0  0  0  0
 18 20  1  0  0  0  0
 18 21  1  0  0  0  0
 19 34  1  0  0  0  0
 20 35  1  0  0  0  0
 22 27  1  0  0  0  0
 22 36  1  0  0  0  0
 23 28  1  0  0  0  0
 23 37  1  0  0  0  0
 24 25  1  0  0  0  0
 24 38  1  0  0  0  0
 24 39  1  0  0  0  0
 25 26  1  0  0  0  0
 25 40  1  0  0  0  0
 25 41  1  0  0  0  0
 26 29  1  0  0  0  0
 26 42  1  0  0  0  0
 26 43  1  0  0  0  0
 27 28  2  0  0  0  0
 27 44  1  0  0  0  0
 28 45  1  0  0  0  0
 29 46  1  0  0  0  0
 29 47  1  0  0  0  0
 29 48  1  0  0  0  0
M  END
>  <$CLUSTER>
585

>  <INDEX>
384775

$$$$
InterBioScreen STOCK5S-66185
  MOE2020           3D

 48 51  0  0  0  0  0  0  0  0999 V2000
    0.5400    0.4640    0.8020 C   0  0  0  0  0  0  0  0  0  0  0  0
    0.6430   -0.3920   -0.2570 C   0  0  0  0  0  0  0  0  0  0  0  0
    1.6310    0.5860    1.7100 N   0  0  0  0  0  0  0  0  0  0  0  0
    1.8500   -1.2730   -0.3850 C   0  0  0  0  0  0  0  0  0  0  0  0
   -0.6580    1.1820    0.8960 N   0  0  0  0  0  0  0  0  0  0  0  0
    2.8360   -1.2540    0.7070 C   0  0  0  0  0  0  0  0  0  0  0  0
    2.6620   -0.3410    1.6600 C   0  0  0  0  0  0  0  0  0  0  0  0
   -0.4190   -0.5630   -1.2690 C   0  0  0  0  0  0  0  0  0  0  0  0
   -1.2730    1.6870    2.0320 C   0  0  0  0  0  0  0  0  0  0  0  0
   -2.4600    2.5500    1.6870 C   0  0  0  0  0  0  0  0  0  0  0  0
    2.0170   -2.0110   -1.3480 O   0  0  0  0  0  0  0  0  0  0  0  0
   -0.3740    0.1670   -2.4640 C   0  0  0  0  0  0  0  0  0  0  0  0
   -0.9900    1.4430    3.2010 O   0  0  0  0  0  0  0  0  0  0  0  0
   -3.1940    2.4550    0.5310 C   0  0  0  0  0  0  0  0  0  0  0  0
   -2.8360    3.5040    2.6810 C   0  0  0  0  0  0  0  0  0  0  0  0
    1.7630    1.6830    2.6730 C   0  0  0  0  0  0  0  0  0  0  0  0
   -1.3800    0.0090   -3.4190 C   0  0  0  0  0  0  0  0  0  0  0  0
    3.9620   -2.1000    0.5620 C   0  0  0  0  0  0  0  0  0  0  0  0
   -3.9240    4.3470    2.4500 C   0  0  0  0  0  0  0  0  0  0  0  0
   -4.2830    3.3000    0.3060 C   0  0  0  0  0  0  0  0  0  0  0  0
   -1.4770   -1.4530   -1.0420 C   0  0  0  0  0  0  0  0  0  0  0  0
   -4.6470    4.2470    1.2630 C   0  0  0  0  0  0  0  0  0  0  0  0
   -1.3340    0.8920   -4.8740 Cl  0  0  0  0  0  0  0  0  0  0  0  0
    3.8120   -0.2270    2.6230 C   0  0  0  0  0  0  0  0  0  0  0  0
   -2.4800   -1.6070   -1.9990 C   0  0  0  0  0  0  0  0  0  0  0  0
   -2.4320   -0.8760   -3.1860 C   0  0  0  0  0  0  0  0  0  0  0  0
   -5.8100    5.1500    1.0130 C   0  0  0  0  0  0  0  0  0  0  0  0
    4.9710   -2.0410    1.5190 C   0  0  0  0  0  0  0  0  0  0  0  0
    4.8960   -1.1070    2.5470 C   0  0  0  0  0  0  0  0  0  0  0  0
   -1.1370    1.3550    0.0230 H   0  0  0  0  0  0  0  0  0  0  0  0
    0.4400    0.8530   -2.6470 H   0  0  0  0  0  0  0  0  0  0  0  0
   -2.9270    1.7190   -0.2130 H   0  0  0  0  0  0  0  0  0  0  0  0
   -2.2820    3.5730    3.6060 H   0  0  0  0  0  0  0  0  0  0  0  0
    0.8900    2.3320    2.6070 H   0  0  0  0  0  0  0  0  0  0  0  0
    2.6610    2.2580    2.4480 H   0  0  0  0  0  0  0  0  0  0  0  0
    1.8370    1.2750    3.6810 H   0  0  0  0  0  0  0  0  0  0  0  0
    4.0370   -2.7780   -0.2750 H   0  0  0  0  0  0  0  0  0  0  0  0
   -4.2060    5.0780    3.1930 H   0  0  0  0  0  0  0  0  0  0  0  0
   -4.8450    3.2200   -0.6130 H   0  0  0  0  0  0  0  0  0  0  0  0
   -1.5160   -2.0210   -0.1240 H   0  0  0  0  0  0  0  0  0  0  0  0
    3.8000    0.5420    3.3810 H   0  0  0  0  0  0  0  0  0  0  0  0
   -3.2950   -2.2930   -1.8210 H   0  0  0  0  0  0  0  0  0  0  0  0
   -3.2100   -0.9960   -3.9250 H   0  0  0  0  0  0  0  0  0  0  0  0
   -5.9420    5.8170    1.8650 H   0  0  0  0  0  0  0  0  0  0  0  0
   -6.7110    4.5520    0.8770 H   0  0  0  0  0  0  0  0  0  0  0  0
   -5.6260    5.7400    0.1150 H   0  0  0  0  0  0  0  0  0  0  0  0
    5.8100   -2.7190    1.4640 H   0  0  0  0  0  0  0  0  0  0  0  0
    5.6790   -1.0610    3.2900 H   0  0  0  0  0  0  0  0  0  0  0  0
  1  2  2  0  0  0  0
  1  3  1  0  0  0  0
  1  5  1  0  0  0  0
  2  4  1  0  0  0  0
  2  8  1  0  0  0  0
  3  7  1  0  0  0  0
  3 16  1  0  0  0  0
  4  6  1  0  0  0  0
  4 11  2  0  0  0  0
  5  9  1  0  0  0  0
  5 30  1  0  0  0  0
  6  7  2  0  0  0  0
  6 18  1  0  0  0  0
  7 24  1  0  0  0  0
  8 12  2  0  0  0  0
  8 21  1  0  0  0  0
  9 10  1  0  0  0  0
  9 13  2  0  0  0  0
 10 14  1  0  0  0  0
 10 15  2  0  0  0  0
 12 17  1  0  0  0  0
 12 31  1  0  0  0  0
 14 20  2  0  0  0  0
 14 32  1  0  0  0  0
 15 19  1  0  0  0  0
 15 33  1  0  0  0  0
 16 34  1  0  0  0  0
 16 35  1  0  0  0  0
 16 36  1  0  0  0  0
 17 23  1  0  0  0  0
 17 26  2  0  0  0  0
 18 28  2  0  0  0  0
 18 37  1  0  0  0  0
 19 22  2  0  0  0  0
 19 38  1  0  0  0  0
 20 22  1  0  0  0  0
 20 39  1  0  0  0  0
 21 25  2  0  0  0  0
 21 40  1  0  0  0  0
 22 27  1  0  0  0  0
 24 29  2  0  0  0  0
 24 41  1  0  0  0  0
 25 26  1  0  0  0  0
 25 42  1  0  0  0  0
 26 43  1  0  0  0  0
 27 44  1  0  0  0  0
 27 45  1  0  0  0  0
 27 46  1  0  0  0  0
 28 29  1  0  0  0  0
 28 47  1  0  0  0  0
 29 48  1  0  0  0  0
M  END
>  <$CLUSTER>
586

>  <INDEX>
383949

$$$$
Princeton Biomolecular OSSK_295530
  MOE2020           3D

 49 51  0  0  1  0  0  0  0  0999 V2000
    0.1330   -0.2010   -1.5650 C   0  0  0  0  0  0  0  0  0  0  0  0
    0.8350    0.0200    0.7940 C   0  0  0  0  0  0  0  0  0  0  0  0
    1.1610   -0.1720   -0.4950 C   0  0  0  0  0  0  0  0  0  0  0  0
   -1.1900   -0.0070   -1.1800 O   0  0  0  0  0  0  0  0  0  0  0  0
   -1.5390    0.2330    0.1600 C   0  0  0  0  0  0  0  0  0  0  0  0
   -0.5710    0.2590    1.1610 C   0  0  0  0  0  0  0  0  0  0  0  0
   -8.8180    2.7880    5.7700 C   0  0  0  0  0  0  0  0  0  0  0  0
   -7.1780    1.6190    4.3640 N   0  0  0  0  0  0  0  0  0  0  0  0
   -2.8950    0.4470    0.4210 C   0  0  0  0  0  0  0  0  0  0  0  0
   -6.6350    1.3520    3.1150 C   0  0  0  0  0  0  0  0  0  0  0  0
   -1.0040    0.5260    2.4680 C   0  0  0  0  0  0  0  0  0  0  0  0
   -8.6030    1.8330    4.6010 C   0  0  3  0  0  0  0  0  0  0  0  0
    0.4230   -0.3950   -2.7410 O   0  0  0  0  0  0  0  0  0  0  0  0
   -8.4950    4.0120    5.4720 O   0  0  0  0  0  0  0  0  0  0  0  0
   -7.2990    1.2780    2.0950 O   0  0  0  0  0  0  0  0  0  0  0  0
   -3.3030    0.7020    1.7250 C   0  0  0  0  0  0  0  0  0  0  0  0
   -4.6510    0.9010    1.8750 O   0  0  0  0  0  0  0  0  0  0  0  0
   -5.1290    1.1700    3.1920 C   0  0  0  0  0  0  0  0  0  0  0  0
   -2.3590    0.7430    2.7470 C   0  0  0  0  0  0  0  0  0  0  0  0
   -9.1450    2.3280    6.8700 O   0  5  0  0  0  0  0  0  0  0  0  0
    1.8780   -0.0020    1.8900 C   0  0  0  0  0  0  0  0  0  0  0  0
    2.5850   -0.3660   -0.9610 C   0  0  0  0  0  0  0  0  0  0  0  0
   -9.3040    0.5000    4.8470 C   0  0  0  0  0  0  0  0  0  0  0  0
   -9.2760   -0.4670    3.6710 C   0  0  0  0  0  0  0  0  0  0  0  0
    3.2420   -0.5390    1.4490 C   0  0  0  0  0  0  0  0  0  0  0  0
    3.6290    0.0140    0.0880 C   0  0  0  0  0  0  0  0  0  0  0  0
   -9.9730   -1.7560    3.9570 C   0  0  0  0  0  0  0  0  0  0  0  0
   -6.5510    1.6680    5.1550 H   0  0  0  0  0  0  0  0  0  0  0  0
   -3.6180    0.4150   -0.3810 H   0  0  0  0  0  0  0  0  0  0  0  0
   -0.2820    0.5650    3.2710 H   0  0  0  0  0  0  0  0  0  0  0  0
   -9.0390    2.2900    3.7120 H   0  0  0  0  0  0  0  0  0  0  0  0
   -4.8900    0.3350    3.8500 H   0  0  0  0  0  0  0  0  0  0  0  0
   -4.6650    2.0790    3.5760 H   0  0  0  0  0  0  0  0  0  0  0  0
   -2.6730    0.9430    3.7610 H   0  0  0  0  0  0  0  0  0  0  0  0
    1.5090   -0.6310    2.7000 H   0  0  0  0  0  0  0  0  0  0  0  0
    2.0130    1.0170    2.2530 H   0  0  0  0  0  0  0  0  0  0  0  0
    2.7450    0.2500   -1.8460 H   0  0  0  0  0  0  0  0  0  0  0  0
    2.7230   -1.4160   -1.2200 H   0  0  0  0  0  0  0  0  0  0  0  0
  -10.3460    0.7060    5.0910 H   0  0  0  0  0  0  0  0  0  0  0  0
   -8.8210    0.0150    5.6950 H   0  0  0  0  0  0  0  0  0  0  0  0
   -8.2370   -0.6820    3.4230 H   0  0  0  0  0  0  0  0  0  0  0  0
   -9.7620    0.0090    2.8190 H   0  0  0  0  0  0  0  0  0  0  0  0
    3.1960   -1.6270    1.3920 H   0  0  0  0  0  0  0  0  0  0  0  0
    3.9950   -0.2450    2.1810 H   0  0  0  0  0  0  0  0  0  0  0  0
    3.6980    1.1000    0.1490 H   0  0  0  0  0  0  0  0  0  0  0  0
    4.5960   -0.3960   -0.2040 H   0  0  0  0  0  0  0  0  0  0  0  0
   -9.4980   -2.2450    4.8080 H   0  0  0  0  0  0  0  0  0  0  0  0
   -9.9100   -2.4050    3.0840 H   0  0  0  0  0  0  0  0  0  0  0  0
  -11.0200   -1.5590    4.1880 H   0  0  0  0  0  0  0  0  0  0  0  0
  1  3  1  0  0  0  0
  1  4  1  0  0  0  0
  1 13  2  0  0  0  0
  2  3  2  0  0  0  0
  2  6  1  0  0  0  0
  2 21  1  0  0  0  0
  3 22  1  0  0  0  0
  4  5  1  0  0  0  0
  5  6  2  0  0  0  0
  5  9  1  0  0  0  0
  6 11  1  0  0  0  0
  7 12  1  0  0  0  0
  7 14  2  0  0  0  0
  7 20  1  0  0  0  0
  8 10  1  0  0  0  0
  8 12  1  0  0  0  0
  8 28  1  0  0  0  0
  9 16  2  0  0  0  0
  9 29  1  0  0  0  0
 10 15  2  0  0  0  0
 10 18  1  0  0  0  0
 11 19  2  0  0  0  0
 11 30  1  0  0  0  0
 12 23  1  0  0  0  0
 12 31  1  0  0  0  0
 16 17  1  0  0  0  0
 16 19  1  0  0  0  0
 17 18  1  0  0  0  0
 18 32  1  0  0  0  0
 18 33  1  0  0  0  0
 19 34  1  0  0  0  0
 21 25  1  0  0  0  0
 21 35  1  0  0  0  0
 21 36  1  0  0  0  0
 22 26  1  0  0  0  0
 22 37  1  0  0  0  0
 22 38  1  0  0  0  0
 23 24  1  0  0  0  0
 23 39  1  0  0  0  0
 23 40  1  0  0  0  0
 24 27  1  0  0  0  0
 24 41  1  0  0  0  0
 24 42  1  0  0  0  0
 25 26  1  0  0  0  0
 25 43  1  0  0  0  0
 25 44  1  0  0  0  0
 26 45  1  0  0  0  0
 26 46  1  0  0  0  0
 27 47  1  0  0  0  0
 27 48  1  0  0  0  0
 27 49  1  0  0  0  0
M  CHG  1  20  -1
M  END
>  <$CLUSTER>
587

>  <INDEX>
581542

$$$$
InterBioScreen STOCK5S-83607
  MOE2020           3D

 38 40  0  0  0  0  0  0  0  0999 V2000
    0.3560    0.1180    0.0360 C   0  0  0  0  0  0  0  0  0  0  0  0
   -0.4210   -3.4100    3.4300 C   0  0  0  0  0  0  0  0  0  0  0  0
    1.3630    1.0810   -0.5340 C   0  0  0  0  0  0  0  0  0  0  0  0
    0.2830   -2.4450    2.7220 N   0  0  0  0  0  0  0  0  0  0  0  0
    0.4430   -4.0450    4.4920 C   0  0  0  0  0  0  0  0  0  0  0  0
    0.7870   -6.0070    5.9050 C   0  0  0  0  0  0  0  0  0  0  0  0
    0.0570   -5.3560    4.9100 C   0  0  0  0  0  0  0  0  0  0  0  0
   -0.9600    0.0240   -0.4580 C   0  0  0  0  0  0  0  0  0  0  0  0
    0.7190   -0.7330    1.1020 C   0  0  0  0  0  0  0  0  0  0  0  0
    1.8740   -5.3740    6.5020 C   0  0  0  0  0  0  0  0  0  0  0  0
   -0.1980   -1.6370    1.6480 C   0  0  0  0  0  0  0  0  0  0  0  0
    0.2760   -7.2570    6.2510 O   0  0  0  0  0  0  0  0  0  0  0  0
   -1.5870   -3.7610    3.2770 O   0  0  0  0  0  0  0  0  0  0  0  0
    2.7120   -5.9410    7.4630 O   0  0  0  0  0  0  0  0  0  0  0  0
    2.5300    1.1020   -0.0300 O   0  0  0  0  0  0  0  0  0  0  0  0
    1.5050   -3.4290    5.1110 C   0  0  0  0  0  0  0  0  0  0  0  0
    2.2300   -4.0850    6.1070 C   0  0  0  0  0  0  0  0  0  0  0  0
   -1.8760   -0.8780    0.0870 C   0  0  0  0  0  0  0  0  0  0  0  0
    0.9860    1.8260   -1.4940 O   0  5  0  0  0  0  0  0  0  0  0  0
   -1.4940   -1.7090    1.1410 C   0  0  0  0  0  0  0  0  0  0  0  0
   -1.4260    0.8060   -1.4970 O   0  0  0  0  0  0  0  0  0  0  0  0
    1.7750   -8.1380    7.9640 C   0  0  0  0  0  0  0  0  0  0  0  0
    0.4080   -7.5530    7.6510 C   0  0  0  0  0  0  0  0  0  0  0  0
    2.8930   -7.3560    7.2930 C   0  0  0  0  0  0  0  0  0  0  0  0
    1.2430   -2.2980    2.9980 H   0  0  0  0  0  0  0  0  0  0  0  0
   -0.7960   -5.8410    4.4580 H   0  0  0  0  0  0  0  0  0  0  0  0
    1.7210   -0.6850    1.5020 H   0  0  0  0  0  0  0  0  0  0  0  0
    1.7810   -2.4250    4.8230 H   0  0  0  0  0  0  0  0  0  0  0  0
    3.0700   -3.5920    6.5740 H   0  0  0  0  0  0  0  0  0  0  0  0
   -2.8800   -0.9330   -0.3070 H   0  0  0  0  0  0  0  0  0  0  0  0
   -2.2020   -2.4070    1.5630 H   0  0  0  0  0  0  0  0  0  0  0  0
   -2.3410    0.6500   -1.7430 H   0  0  0  0  0  0  0  0  0  0  0  0
    1.8060   -9.1690    7.6120 H   0  0  0  0  0  0  0  0  0  0  0  0
    1.9290   -8.1170    9.0430 H   0  0  0  0  0  0  0  0  0  0  0  0
   -0.3600   -8.2720    7.9360 H   0  0  0  0  0  0  0  0  0  0  0  0
    0.2750   -6.6340    8.2220 H   0  0  0  0  0  0  0  0  0  0  0  0
    3.8460   -7.6480    7.7350 H   0  0  0  0  0  0  0  0  0  0  0  0
    2.9000   -7.5880    6.2280 H   0  0  0  0  0  0  0  0  0  0  0  0
  1  3  1  0  0  0  0
  1  8  1  0  0  0  0
  1  9  2  0  0  0  0
  2  4  1  0  0  0  0
  2  5  1  0  0  0  0
  2 13  2  0  0  0  0
  3 15  2  0  0  0  0
  3 19  1  0  0  0  0
  4 11  1  0  0  0  0
  4 25  1  0  0  0  0
  5  7  2  0  0  0  0
  5 16  1  0  0  0  0
  6  7  1  0  0  0  0
  6 10  2  0  0  0  0
  6 12  1  0  0  0  0
  7 26  1  0  0  0  0
  8 18  2  0  0  0  0
  8 21  1  0  0  0  0
  9 11  1  0  0  0  0
  9 27  1  0  0  0  0
 10 14  1  0  0  0  0
 10 17  1  0  0  0  0
 11 20  2  0  0  0  0
 12 23  1  0  0  0  0
 14 24  1  0  0  0  0
 16 17  2  0  0  0  0
 16 28  1  0  0  0  0
 17 29  1  0  0  0  0
 18 20  1  0  0  0  0
 18 30  1  0  0  0  0
 20 31  1  0  0  0  0
 21 32  1  0  0  0  0
 22 23  1  0  0  0  0
 22 24  1  0  0  0  0
 22 33  1  0  0  0  0
 22 34  1  0  0  0  0
 23 35  1  0  0  0  0
 23 36  1  0  0  0  0
 24 37  1  0  0  0  0
 24 38  1  0  0  0  0
M  CHG  1  19  -1
M  END
>  <$CLUSTER>
588

>  <INDEX>
390648

$$$$
Life Chemicals F0517-0316
  MOE2020           3D

 35 38  0  0  0  0  0  0  0  0999 V2000
   -0.4610    0.1230    0.5410 N   0  0  0  0  0  0  0  0  0  0  0  0
   -1.1100    1.2450    0.0330 C   0  0  0  0  0  0  0  0  0  0  0  0
   -2.2900    1.3910    0.7520 C   0  0  0  0  0  0  0  0  0  0  0  0
   -1.1870   -0.4390    1.5490 N   0  0  0  0  0  0  0  0  0  0  0  0
   -3.1530    2.4640    0.4410 C   0  0  0  0  0  0  0  0  0  0  0  0
   -2.2700    0.3240    1.6640 C   0  0  0  0  0  0  0  0  0  0  0  0
   -0.7030    2.0540   -0.9600 N   0  0  0  0  0  0  0  0  0  0  0  0
   -2.7490    3.2900   -0.5650 N   0  0  0  0  0  0  0  0  0  0  0  0
   -4.3550    2.6420    1.1490 N   0  0  0  0  0  0  0  0  0  0  0  0
   -6.4590    5.5730    0.1090 C   0  0  0  0  0  0  0  0  0  0  0  0
   -5.3980    4.6610    0.1400 C   0  0  0  0  0  0  0  0  0  0  0  0
   -1.5790    3.0440   -1.1910 C   0  0  0  0  0  0  0  0  0  0  0  0
    0.7820   -0.4650    0.1590 C   0  0  0  0  0  0  0  0  0  0  0  0
   -5.3840    3.6000    1.0550 C   0  0  0  0  0  0  0  0  0  0  0  0
   -7.5260    5.4420    0.9930 C   0  0  0  0  0  0  0  0  0  0  0  0
   -7.5350    4.3980    1.9090 C   0  0  0  0  0  0  0  0  0  0  0  0
   -6.4260    6.8460   -1.0240 Cl  0  0  0  0  0  0  0  0  0  0  0  0
   -6.4750    3.4880    1.9390 C   0  0  0  0  0  0  0  0  0  0  0  0
   -8.5710    6.2690    1.0250 F   0  0  0  0  0  0  0  0  0  0  0  0
    1.5720    0.0650   -0.8680 C   0  0  0  0  0  0  0  0  0  0  0  0
    1.2320   -1.6140    0.8340 C   0  0  0  0  0  0  0  0  0  0  0  0
    2.7850   -0.5430   -1.2120 C   0  0  0  0  0  0  0  0  0  0  0  0
    2.4450   -2.2150    0.4850 C   0  0  0  0  0  0  0  0  0  0  0  0
    3.2220   -1.6800   -0.5380 C   0  0  0  0  0  0  0  0  0  0  0  0
   -3.0530    0.1420    2.3850 H   0  0  0  0  0  0  0  0  0  0  0  0
   -4.5110    1.9470    1.8650 H   0  0  0  0  0  0  0  0  0  0  0  0
   -4.5770    4.7770   -0.5520 H   0  0  0  0  0  0  0  0  0  0  0  0
   -1.3130    3.7330   -1.9790 H   0  0  0  0  0  0  0  0  0  0  0  0
   -8.3600    4.2900    2.5970 H   0  0  0  0  0  0  0  0  0  0  0  0
   -6.4930    2.6810    2.6560 H   0  0  0  0  0  0  0  0  0  0  0  0
    1.2440    0.9470   -1.3970 H   0  0  0  0  0  0  0  0  0  0  0  0
    0.6350   -2.0360    1.6290 H   0  0  0  0  0  0  0  0  0  0  0  0
    3.3870   -0.1270   -2.0070 H   0  0  0  0  0  0  0  0  0  0  0  0
    2.7800   -3.0970    1.0110 H   0  0  0  0  0  0  0  0  0  0  0  0
    4.1590   -2.1440   -0.8080 H   0  0  0  0  0  0  0  0  0  0  0  0
  1  2  1  0  0  0  0
  1  4  1  0  0  0  0
  1 13  1  0  0  0  0
  2  3  2  0  0  0  0
  2  7  1  0  0  0  0
  3  5  1  0  0  0  0
  3  6  1  0  0  0  0
  4  6  2  0  0  0  0
  5  8  2  0  0  0  0
  5  9  1  0  0  0  0
  6 25  1  0  0  0  0
  7 12  2  0  0  0  0
  8 12  1  0  0  0  0
  9 14  1  0  0  0  0
  9 26  1  0  0  0  0
 10 11  2  0  0  0  0
 10 15  1  0  0  0  0
 10 17  1  0  0  0  0
 11 14  1  0  0  0  0
 11 27  1  0  0  0  0
 12 28  1  0  0  0  0
 13 20  2  0  0  0  0
 13 21  1  0  0  0  0
 14 18  2  0  0  0  0
 15 16  2  0  0  0  0
 15 19  1  0  0  0  0
 16 18  1  0  0  0  0
 16 29  1  0  0  0  0
 18 30  1  0  0  0  0
 20 22  1  0  0  0  0
 20 31  1  0  0  0  0
 21 23  2  0  0  0  0
 21 32  1  0  0  0  0
 22 24  2  0  0  0  0
 22 33  1  0  0  0  0
 23 24  1  0  0  0  0
 23 34  1  0  0  0  0
 24 35  1  0  0  0  0
M  END
>  <$CLUSTER>
589

>  <INDEX>
271377

$$$$
InterBioScreen STOCK5S-17255
  MOE2020           3D

 42 44  0  0  0  0  0  0  0  0999 V2000
   -2.6530   -0.3840   -0.1820 N   0  0  0  0  0  0  0  0  0  0  0  0
   -1.5630    0.4860   -0.0780 C   0  0  0  0  0  0  0  0  0  0  0  0
   -2.2430   -1.6810   -0.2330 N   0  0  0  0  0  0  0  0  0  0  0  0
   -0.4320   -0.3080   -0.0670 C   0  0  0  0  0  0  0  0  0  0  0  0
   -3.9840    0.0880   -0.2230 C   0  0  0  0  0  0  0  0  0  0  0  0
   -0.9110   -1.6350   -0.1640 C   0  0  0  0  0  0  0  0  0  0  0  0
   -1.7380    1.8360    0.0020 N   0  0  0  0  0  0  0  0  0  0  0  0
   -4.1800    1.4160   -0.1530 C   0  0  0  0  0  0  0  0  0  0  0  0
   -2.9680    2.2510   -0.0360 C   0  0  0  0  0  0  0  0  0  0  0  0
    0.9150    0.2170    0.0440 C   0  0  0  0  0  0  0  0  0  0  0  0
   -4.9910   -0.8550   -0.3320 N   0  0  0  0  0  0  0  0  0  0  0  0
    1.3730    1.2130   -0.8310 C   0  0  0  0  0  0  0  0  0  0  0  0
    1.7820   -0.2790    1.0260 C   0  0  0  0  0  0  0  0  0  0  0  0
    3.5290    1.2090    0.2630 C   0  0  0  0  0  0  0  0  0  0  0  0
   -0.1340   -2.8970   -0.2020 C   0  0  0  0  0  0  0  0  0  0  0  0
    2.6740    1.7060   -0.7190 C   0  0  0  0  0  0  0  0  0  0  0  0
    3.0830    0.2170    1.1350 C   0  0  0  0  0  0  0  0  0  0  0  0
    5.1120    1.8210    0.3860 Cl  0  0  0  0  0  0  0  0  0  0  0  0
   -3.2190    3.7900    0.0480 C   0  0  0  0  0  0  0  0  0  0  0  0
   -6.8930   -2.7970    0.5940 O   0  0  0  0  0  0  0  0  0  0  0  0
   -6.4170   -0.6100   -0.3910 C   0  0  0  0  0  0  0  0  0  0  0  0
   -7.1710   -1.9240   -0.5080 C   0  0  0  0  0  0  0  0  0  0  0  0
   -7.5700   -4.0090    0.5150 C   0  0  0  0  0  0  0  0  0  0  0  0
   -5.1690    1.8480   -0.1810 H   0  0  0  0  0  0  0  0  0  0  0  0
   -4.6990   -1.8210   -0.3750 H   0  0  0  0  0  0  0  0  0  0  0  0
    0.7160    1.6000   -1.5950 H   0  0  0  0  0  0  0  0  0  0  0  0
    1.4430   -1.0490    1.7030 H   0  0  0  0  0  0  0  0  0  0  0  0
   -0.8180   -3.7420   -0.2800 H   0  0  0  0  0  0  0  0  0  0  0  0
    0.4540   -2.9890    0.7110 H   0  0  0  0  0  0  0  0  0  0  0  0
    0.5330   -2.8870   -1.0640 H   0  0  0  0  0  0  0  0  0  0  0  0
    3.0190    2.4740   -1.3950 H   0  0  0  0  0  0  0  0  0  0  0  0
    3.7450   -0.1690    1.8960 H   0  0  0  0  0  0  0  0  0  0  0  0
   -4.2900    3.9860    0.0040 H   0  0  0  0  0  0  0  0  0  0  0  0
   -2.7250    4.2850   -0.7880 H   0  0  0  0  0  0  0  0  0  0  0  0
   -2.8170    4.1730    0.9860 H   0  0  0  0  0  0  0  0  0  0  0  0
   -6.6400    0.0110   -1.2580 H   0  0  0  0  0  0  0  0  0  0  0  0
   -6.7310   -0.0940    0.5160 H   0  0  0  0  0  0  0  0  0  0  0  0
   -8.2410   -1.7160   -0.5320 H   0  0  0  0  0  0  0  0  0  0  0  0
   -6.8760   -2.4190   -1.4330 H   0  0  0  0  0  0  0  0  0  0  0  0
   -7.3160   -4.6240    1.3790 H   0  0  0  0  0  0  0  0  0  0  0  0
   -7.2800   -4.5280   -0.3980 H   0  0  0  0  0  0  0  0  0  0  0  0
   -8.6440   -3.8250    0.5030 H   0  0  0  0  0  0  0  0  0  0  0  0
  1  2  1  0  0  0  0
  1  3  1  0  0  0  0
  1  5  1  0  0  0  0
  2  4  2  0  0  0  0
  2  7  1  0  0  0  0
  3  6  2  0  0  0  0
  4  6  1  0  0  0  0
  4 10  1  0  0  0  0
  5  8  2  0  0  0  0
  5 11  1  0  0  0  0
  6 15  1  0  0  0  0
  7  9  2  0  0  0  0
  8  9  1  0  0  0  0
  8 24  1  0  0  0  0
  9 19  1  0  0  0  0
 10 12  2  0  0  0  0
 10 13  1  0  0  0  0
 11 21  1  0  0  0  0
 11 25  1  0  0  0  0
 12 16  1  0  0  0  0
 12 26  1  0  0  0  0
 13 17  2  0  0  0  0
 13 27  1  0  0  0  0
 14 16  2  0  0  0  0
 14 17  1  0  0  0  0
 14 18  1  0  0  0  0
 15 28  1  0  0  0  0
 15 29  1  0  0  0  0
 15 30  1  0  0  0  0
 16 31  1  0  0  0  0
 17 32  1  0  0  0  0
 19 33  1  0  0  0  0
 19 34  1  0  0  0  0
 19 35  1  0  0  0  0
 20 22  1  0  0  0  0
 20 23  1  0  0  0  0
 21 22  1  0  0  0  0
 21 36  1  0  0  0  0
 21 37  1  0  0  0  0
 22 38  1  0  0  0  0
 22 39  1  0  0  0  0
 23 40  1  0  0  0  0
 23 41  1  0  0  0  0
 23 42  1  0  0  0  0
M  END
>  <$CLUSTER>
590

>  <INDEX>
367616

$$$$
InterBioScreen STOCK5S-90702
  MOE2020           3D

 52 56  0  0  0  0  0  0  0  0999 V2000
    3.5790    2.7850    5.5010 C   0  0  0  0  0  0  0  0  0  0  0  0
    1.0250    0.6450    0.0490 C   0  0  0  0  0  0  0  0  0  0  0  0
    1.2440    1.1790   -1.1600 N   0  0  0  0  0  0  0  0  0  0  0  0
    4.0460    2.9290    4.0750 C   0  0  0  0  0  0  0  0  0  0  0  0
    2.3020    2.3420    5.9460 C   0  0  0  0  0  0  0  0  0  0  0  0
    4.3080    3.0590    6.6150 C   0  0  0  0  0  0  0  0  0  0  0  0
    2.3540    2.3810    7.3180 C   0  0  0  0  0  0  0  0  0  0  0  0
   -2.1200    0.8250    8.6590 N   0  3  0  0  0  0  0  0  0  0  0  0
   -0.1510   -0.2370    0.1060 C   0  0  0  0  0  0  0  0  0  0  0  0
    3.5680    2.8140    7.7330 O   0  0  0  0  0  0  0  0  0  0  0  0
    1.8590    0.9090    1.1170 N   0  0  0  0  0  0  0  0  0  0  0  0
    3.1610    2.6030    3.1150 N   0  0  0  0  0  0  0  0  0  0  0  0
    0.0690    0.7470   -2.2150 S   0  0  0  0  0  0  0  0  0  0  0  0
   -0.8290    1.2860    9.0520 C   0  0  0  0  0  0  0  0  0  0  0  0
    1.3840    2.0560    8.3800 C   0  0  0  0  0  0  0  0  0  0  0  0
   -0.8030   -0.2500   -1.1350 C   0  0  0  0  0  0  0  0  0  0  0  0
    0.0980    1.5980    8.0520 C   0  0  0  0  0  0  0  0  0  0  0  0
   -2.4170    0.7010    7.4580 O   0  5  0  0  0  0  0  0  0  0  0  0
   -2.8990    0.5640    9.5900 O   0  0  0  0  0  0  0  0  0  0  0  0
    5.1920    3.3290    3.8540 O   0  0  0  0  0  0  0  0  0  0  0  0
    1.4630    0.7900    2.5100 C   0  0  0  0  0  0  0  0  0  0  0  0
    3.2180    1.3830    0.8700 C   0  0  0  0  0  0  0  0  0  0  0  0
    3.4810    2.6950    1.6780 C   0  0  0  0  0  0  0  0  0  0  0  0
    1.7760    2.1190    3.2730 C   0  0  0  0  0  0  0  0  0  0  0  0
   -0.7180   -1.0550    1.1210 C   0  0  0  0  0  0  0  0  0  0  0  0
    5.6840    3.5460    6.8530 C   0  0  0  0  0  0  0  0  0  0  0  0
   -0.4860    1.4280   10.3920 C   0  0  0  0  0  0  0  0  0  0  0  0
    1.7130    2.1920    9.7380 C   0  0  0  0  0  0  0  0  0  0  0  0
    0.7850    1.8800   10.7360 C   0  0  0  0  0  0  0  0  0  0  0  0
   -1.9720   -0.9910   -1.3820 C   0  0  0  0  0  0  0  0  0  0  0  0
   -1.8800   -1.8000    0.8860 C   0  0  0  0  0  0  0  0  0  0  0  0
   -2.5020   -1.7630   -0.3510 C   0  0  0  0  0  0  0  0  0  0  0  0
    1.4660    2.0380    5.3330 H   0  0  0  0  0  0  0  0  0  0  0  0
   -0.1790    1.4850    7.0140 H   0  0  0  0  0  0  0  0  0  0  0  0
    2.0130   -0.0290    2.9730 H   0  0  0  0  0  0  0  0  0  0  0  0
    0.3940    0.5860    2.5650 H   0  0  0  0  0  0  0  0  0  0  0  0
    3.3430    1.5830   -0.1940 H   0  0  0  0  0  0  0  0  0  0  0  0
    3.9290    0.6180    1.1820 H   0  0  0  0  0  0  0  0  0  0  0  0
    4.5360    2.9500    1.5800 H   0  0  0  0  0  0  0  0  0  0  0  0
    2.8740    3.4890    1.2440 H   0  0  0  0  0  0  0  0  0  0  0  0
    1.1010    2.8910    2.9030 H   0  0  0  0  0  0  0  0  0  0  0  0
    1.5920    1.9540    4.3350 H   0  0  0  0  0  0  0  0  0  0  0  0
   -0.2440   -1.1030    2.0900 H   0  0  0  0  0  0  0  0  0  0  0  0
    6.1820    3.7080    5.8970 H   0  0  0  0  0  0  0  0  0  0  0  0
    6.2370    2.8050    7.4300 H   0  0  0  0  0  0  0  0  0  0  0  0
    5.6470    4.4840    7.4070 H   0  0  0  0  0  0  0  0  0  0  0  0
   -1.2030    1.1880   11.1630 H   0  0  0  0  0  0  0  0  0  0  0  0
    2.6960    2.5420   10.0150 H   0  0  0  0  0  0  0  0  0  0  0  0
    1.0550    1.9900   11.7760 H   0  0  0  0  0  0  0  0  0  0  0  0
   -2.4490   -0.9620   -2.3510 H   0  0  0  0  0  0  0  0  0  0  0  0
   -2.2950   -2.4090    1.6760 H   0  0  0  0  0  0  0  0  0  0  0  0
   -3.4030   -2.3360   -0.5170 H   0  0  0  0  0  0  0  0  0  0  0  0
  1  4  1  0  0  0  0
  1  5  1  0  0  0  0
  1  6  2  0  0  0  0
  2  3  2  0  0  0  0
  2  9  1  0  0  0  0
  2 11  1  0  0  0  0
  3 13  1  0  0  0  0
  4 12  1  0  0  0  0
  4 20  2  0  0  0  0
  5  7  2  0  0  0  0
  5 33  1  0  0  0  0
  6 10  1  0  0  0  0
  6 26  1  0  0  0  0
  7 10  1  0  0  0  0
  7 15  1  0  0  0  0
  8 14  1  0  0  0  0
  8 18  1  0  0  0  0
  8 19  2  0  0  0  0
  9 16  2  0  0  0  0
  9 25  1  0  0  0  0
 11 21  1  0  0  0  0
 11 22  1  0  0  0  0
 12 23  1  0  0  0  0
 12 24  1  0  0  0  0
 13 16  1  0  0  0  0
 14 17  2  0  0  0  0
 14 27  1  0  0  0  0
 15 17  1  0  0  0  0
 15 28  2  0  0  0  0
 16 30  1  0  0  0  0
 17 34  1  0  0  0  0
 21 24  1  0  0  0  0
 21 35  1  0  0  0  0
 21 36  1  0  0  0  0
 22 23  1  0  0  0  0
 22 37  1  0  0  0  0
 22 38  1  0  0  0  0
 23 39  1  0  0  0  0
 23 40  1  0  0  0  0
 24 41  1  0  0  0  0
 24 42  1  0  0  0  0
 25 31  2  0  0  0  0
 25 43  1  0  0  0  0
 26 44  1  0  0  0  0
 26 45  1  0  0  0  0
 26 46  1  0  0  0  0
 27 29  2  0  0  0  0
 27 47  1  0  0  0  0
 28 29  1  0  0  0  0
 28 48  1  0  0  0  0
 29 49  1  0  0  0  0
 30 32  2  0  0  0  0
 30 50  1  0  0  0  0
 31 32  1  0  0  0  0
 31 51  1  0  0  0  0
 32 52  1  0  0  0  0
M  CHG  1   8   1
M  CHG  1  18  -1
M  END
>  <$CLUSTER>
591

>  <INDEX>
395597

$$$$
InterBioScreen STOCK4S-11585
  MOE2020           3D

 37 40  0  0  0  0  0  0  0  0999 V2000
    0.7350    1.4050   -0.3950 N   0  0  0  0  0  0  0  0  0  0  0  0
    0.3310    2.3490   -1.2740 C   0  0  0  0  0  0  0  0  0  0  0  0
   -0.2040    0.4030   -0.4580 C   0  0  0  0  0  0  0  0  0  0  0  0
    1.8780    1.5940    0.3090 N   0  0  0  0  0  0  0  0  0  0  0  0
    1.4250    3.6580   -1.2880 S   0  0  0  0  0  0  0  0  0  0  0  0
   -1.1030    0.7660   -1.3730 N   0  0  0  0  0  0  0  0  0  0  0  0
    2.3530    2.7500   -0.0620 C   0  0  0  0  0  0  0  0  0  0  0  0
   -0.7640    2.0120   -1.8850 N   0  0  0  0  0  0  0  0  0  0  0  0
   -0.2080   -0.8450    0.3060 C   0  0  0  0  0  0  0  0  0  0  0  0
    3.5900    3.3150    0.4800 C   0  0  0  0  0  0  0  0  0  0  0  0
    0.4150   -0.9610    1.5570 C   0  0  0  0  0  0  0  0  0  0  0  0
    4.2830    2.5630    1.4430 C   0  0  0  0  0  0  0  0  0  0  0  0
    4.1140    4.5550    0.0910 C   0  0  0  0  0  0  0  0  0  0  0  0
    0.3830   -2.1690    2.2610 C   0  0  0  0  0  0  0  0  0  0  0  0
    5.3030    5.0300    0.6530 C   0  0  0  0  0  0  0  0  0  0  0  0
    5.4700    3.0390    2.0030 C   0  0  0  0  0  0  0  0  0  0  0  0
    5.9800    4.2740    1.6080 C   0  0  0  0  0  0  0  0  0  0  0  0
   -0.8770   -1.9650   -0.2120 C   0  0  0  0  0  0  0  0  0  0  0  0
    1.0450   -2.1370    3.4730 O   0  0  0  0  0  0  0  0  0  0  0  0
   -0.9080   -3.1720    0.4920 C   0  0  0  0  0  0  0  0  0  0  0  0
   -0.2760   -3.2740    1.7280 C   0  0  0  0  0  0  0  0  0  0  0  0
    7.2500    4.7830    2.2060 C   0  0  0  0  0  0  0  0  0  0  0  0
    1.0440   -3.3400    4.2330 C   0  0  0  0  0  0  0  0  0  0  0  0
    0.9250   -0.1090    1.9810 H   0  0  0  0  0  0  0  0  0  0  0  0
    3.8930    1.6050    1.7540 H   0  0  0  0  0  0  0  0  0  0  0  0
    3.5960    5.1480   -0.6480 H   0  0  0  0  0  0  0  0  0  0  0  0
    5.6980    5.9870    0.3460 H   0  0  0  0  0  0  0  0  0  0  0  0
    5.9930    2.4500    2.7420 H   0  0  0  0  0  0  0  0  0  0  0  0
   -1.3750   -1.8930   -1.1680 H   0  0  0  0  0  0  0  0  0  0  0  0
   -1.4230   -4.0260    0.0770 H   0  0  0  0  0  0  0  0  0  0  0  0
   -0.2970   -4.2070    2.2720 H   0  0  0  0  0  0  0  0  0  0  0  0
    7.4890    5.7560    1.7780 H   0  0  0  0  0  0  0  0  0  0  0  0
    8.0580    4.0840    1.9920 H   0  0  0  0  0  0  0  0  0  0  0  0
    7.1300    4.8810    3.2850 H   0  0  0  0  0  0  0  0  0  0  0  0
    1.5950   -3.1840    5.1600 H   0  0  0  0  0  0  0  0  0  0  0  0
    1.5190   -4.1340    3.6570 H   0  0  0  0  0  0  0  0  0  0  0  0
    0.0170   -3.6230    4.4640 H   0  0  0  0  0  0  0  0  0  0  0  0
  1  2  1  0  0  0  0
  1  3  1  0  0  0  0
  1  4  1  0  0  0  0
  2  5  1  0  0  0  0
  2  8  2  0  0  0  0
  3  6  2  0  0  0  0
  3  9  1  0  0  0  0
  4  7  2  0  0  0  0
  5  7  1  0  0  0  0
  6  8  1  0  0  0  0
  7 10  1  0  0  0  0
  9 11  2  0  0  0  0
  9 18  1  0  0  0  0
 10 12  1  0  0  0  0
 10 13  2  0  0  0  0
 11 14  1  0  0  0  0
 11 24  1  0  0  0  0
 12 16  2  0  0  0  0
 12 25  1  0  0  0  0
 13 15  1  0  0  0  0
 13 26  1  0  0  0  0
 14 19  1  0  0  0  0
 14 21  2  0  0  0  0
 15 17  2  0  0  0  0
 15 27  1  0  0  0  0
 16 17  1  0  0  0  0
 16 28  1  0  0  0  0
 17 22  1  0  0  0  0
 18 20  2  0  0  0  0
 18 29  1  0  0  0  0
 19 23  1  0  0  0  0
 20 21  1  0  0  0  0
 20 30  1  0  0  0  0
 21 31  1  0  0  0  0
 22 32  1  0  0  0  0
 22 33  1  0  0  0  0
 22 34  1  0  0  0  0
 23 35  1  0  0  0  0
 23 36  1  0  0  0  0
 23 37  1  0  0  0  0
M  END
>  <$CLUSTER>
592

>  <INDEX>
350041

$$$$
InterBioScreen STOCK5S-84913
  MOE2020           3D

 62 66  0  0  1  0  0  0  0  0999 V2000
    1.5580    1.8690    0.7340 C   0  0  3  0  0  0  0  0  0  0  0  0
    0.7770    0.6440    1.2320 C   0  0  1  0  0  0  0  0  0  0  0  0
   -0.7090    0.9760    1.0560 C   0  0  2  0  0  0  0  0  0  0  0  0
    0.9860   -0.6160    0.4330 C   0  0  0  0  0  0  0  0  0  0  0  0
   -0.1670   -0.8570   -0.2850 N   0  0  0  0  0  0  0  0  0  0  0  0
   -1.1790    0.0460   -0.0340 C   0  0  0  0  0  0  0  0  0  0  0  0
    1.9150    1.8770   -0.7580 C   0  0  0  0  0  0  0  0  0  0  0  0
    2.8050    2.1390    1.5760 C   0  0  0  0  0  0  0  0  0  0  0  0
    0.5670    2.9880    0.9810 N   0  3  0  0  0  0  0  0  0  0  0  0
    3.3310    2.0280   -0.7150 N   0  0  0  0  0  0  0  0  0  0  0  0
    3.8440    2.1860    0.5670 C   0  0  0  0  0  0  0  0  0  0  0  0
   -0.7990    2.4460    0.6640 C   0  0  3  0  0  0  0  0  0  0  0  0
    5.1630    2.3820    0.9240 C   0  0  0  0  0  0  0  0  0  0  0  0
    3.0850    2.2480    2.8540 C   0  0  0  0  0  0  0  0  0  0  0  0
   -2.2780    0.1090   -0.5660 O   0  0  0  0  0  0  0  0  0  0  0  0
    2.0270   -1.2570    0.4230 O   0  0  0  0  0  0  0  0  0  0  0  0
    1.2040    1.6980   -1.6510 O   0  0  0  0  0  0  0  0  0  0  0  0
   -1.8420    3.2270    1.4430 C   0  0  0  0  0  0  0  0  0  0  0  0
    5.4430    2.5140    2.2850 C   0  0  0  0  0  0  0  0  0  0  0  0
    4.4130    2.4480    3.2420 C   0  0  0  0  0  0  0  0  0  0  0  0
   -0.2970   -1.9540   -1.2350 C   0  0  0  0  0  0  0  0  0  0  0  0
   -1.9950    4.6750    1.0340 C   0  0  0  0  0  0  0  0  0  0  0  0
    6.2370    2.4500   -0.0870 C   0  0  0  0  0  0  0  0  0  0  0  0
    4.7520    2.5940    4.6930 C   0  0  0  0  0  0  0  0  0  0  0  0
   -2.8660    5.0190   -0.0020 C   0  0  0  0  0  0  0  0  0  0  0  0
   -1.1860    5.6520    1.6120 C   0  0  0  0  0  0  0  0  0  0  0  0
    0.1540   -1.5340   -2.6250 C   0  0  0  0  0  0  0  0  0  0  0  0
    0.0110   -2.6740   -3.6310 C   0  0  0  0  0  0  0  0  0  0  0  0
    0.4600   -2.2560   -5.0220 C   0  0  0  0  0  0  0  0  0  0  0  0
   -1.2880    6.9800    1.1950 C   0  0  0  0  0  0  0  0  0  0  0  0
   -2.9660    6.3470   -0.4180 C   0  0  0  0  0  0  0  0  0  0  0  0
   -2.1780    7.3270    0.1820 C   0  0  0  0  0  0  0  0  0  0  0  0
    1.1160    0.4570    2.2510 H   0  0  0  0  0  0  0  0  0  0  0  0
   -1.3240    0.8410    1.9450 H   0  0  0  0  0  0  0  0  0  0  0  0
    0.6080    3.2800    1.9470 H   0  0  0  0  0  0  0  0  0  0  0  0
    0.7760    3.7740    0.3820 H   0  0  0  0  0  0  0  0  0  0  0  0
    3.9100    2.0210   -1.5420 H   0  0  0  0  0  0  0  0  0  0  0  0
   -1.0980    2.5410   -0.3800 H   0  0  0  0  0  0  0  0  0  0  0  0
    2.3010    2.1840    3.5940 H   0  0  0  0  0  0  0  0  0  0  0  0
   -2.8050    2.7340    1.3070 H   0  0  0  0  0  0  0  0  0  0  0  0
   -1.5660    3.2010    2.4970 H   0  0  0  0  0  0  0  0  0  0  0  0
    6.4620    2.6690    2.6080 H   0  0  0  0  0  0  0  0  0  0  0  0
    0.3170   -2.7900   -0.8990 H   0  0  0  0  0  0  0  0  0  0  0  0
   -1.3410   -2.2650   -1.2790 H   0  0  0  0  0  0  0  0  0  0  0  0
    7.1940    2.6090    0.4100 H   0  0  0  0  0  0  0  0  0  0  0  0
    6.0410    3.2760   -0.7710 H   0  0  0  0  0  0  0  0  0  0  0  0
    6.2690    1.5150   -0.6470 H   0  0  0  0  0  0  0  0  0  0  0  0
    5.8260    2.7410    4.8020 H   0  0  0  0  0  0  0  0  0  0  0  0
    4.4530    1.6930    5.2280 H   0  0  0  0  0  0  0  0  0  0  0  0
    4.2240    3.4540    5.1050 H   0  0  0  0  0  0  0  0  0  0  0  0
   -3.4620    4.2570   -0.4810 H   0  0  0  0  0  0  0  0  0  0  0  0
   -0.4800    5.3810    2.3830 H   0  0  0  0  0  0  0  0  0  0  0  0
   -0.4550   -0.6920   -2.9550 H   0  0  0  0  0  0  0  0  0  0  0  0
    1.2000   -1.2300   -2.5810 H   0  0  0  0  0  0  0  0  0  0  0  0
    0.6210   -3.5150   -3.3010 H   0  0  0  0  0  0  0  0  0  0  0  0
   -1.0350   -2.9780   -3.6740 H   0  0  0  0  0  0  0  0  0  0  0  0
    1.5060   -1.9500   -4.9900 H   0  0  0  0  0  0  0  0  0  0  0  0
   -0.1520   -1.4220   -5.3660 H   0  0  0  0  0  0  0  0  0  0  0  0
    0.3490   -3.0960   -5.7080 H   0  0  0  0  0  0  0  0  0  0  0  0
   -0.6760    7.7390    1.6590 H   0  0  0  0  0  0  0  0  0  0  0  0
   -3.6550    6.6150   -1.2060 H   0  0  0  0  0  0  0  0  0  0  0  0
   -2.2570    8.3550   -0.1390 H   0  0  0  0  0  0  0  0  0  0  0  0
  1  2  1  0  0  0  0
  1  7  1  0  0  0  0
  1  8  1  0  0  0  0
  1  9  1  0  0  0  0
  2  3  1  0  0  0  0
  2  4  1  0  0  0  0
  2 33  1  0  0  0  0
  3  6  1  0  0  0  0
  3 12  1  0  0  0  0
  3 34  1  0  0  0  0
  4  5  1  0  0  0  0
  4 16  2  0  0  0  0
  5  6  1  0  0  0  0
  5 21  1  0  0  0  0
  6 15  2  0  0  0  0
  7 10  1  0  0  0  0
  7 17  2  0  0  0  0
  8 11  1  0  0  0  0
  8 14  2  0  0  0  0
  9 12  1  0  0  0  0
  9 35  1  0  0  0  0
  9 36  1  0  0  0  0
 10 11  1  0  0  0  0
 10 37  1  0  0  0  0
 11 13  2  0  0  0  0
 12 18  1  0  0  0  0
 12 38  1  0  0  0  0
 13 19  1  0  0  0  0
 13 23  1  0  0  0  0
 14 20  1  0  0  0  0
 14 39  1  0  0  0  0
 18 22  1  0  0  0  0
 18 40  1  0  0  0  0
 18 41  1  0  0  0  0
 19 20  2  0  0  0  0
 19 42  1  0  0  0  0
 20 24  1  0  0  0  0
 21 27  1  0  0  0  0
 21 43  1  0  0  0  0
 21 44  1  0  0  0  0
 22 25  1  0  0  0  0
 22 26  2  0  0  0  0
 23 45  1  0  0  0  0
 23 46  1  0  0  0  0
 23 47  1  0  0  0  0
 24 48  1  0  0  0  0
 24 49  1  0  0  0  0
 24 50  1  0  0  0  0
 25 31  2  0  0  0  0
 25 51  1  0  0  0  0
 26 30  1  0  0  0  0
 26 52  1  0  0  0  0
 27 28  1  0  0  0  0
 27 53  1  0  0  0  0
 27 54  1  0  0  0  0
 28 29  1  0  0  0  0
 28 55  1  0  0  0  0
 28 56  1  0  0  0  0
 29 57  1  0  0  0  0
 29 58  1  0  0  0  0
 29 59  1  0  0  0  0
 30 32  2  0  0  0  0
 30 60  1  0  0  0  0
 31 32  1  0  0  0  0
 31 61  1  0  0  0  0
 32 62  1  0  0  0  0
M  CHG  1   9   1
M  END
>  <$CLUSTER>
593

>  <INDEX>
391586

$$$$
InterBioScreen STOCK5S-82246
  MOE2020           3D

 41 44  0  0  0  0  0  0  0  0999 V2000
   -4.0230    2.1400   -1.4040 C   0  0  0  0  0  0  0  0  0  0  0  0
   -2.4660    0.5200   -0.4650 N   0  0  0  0  0  0  0  0  0  0  0  0
   -4.9320    2.5520   -2.3130 N   0  0  0  0  0  0  0  0  0  0  0  0
   -3.3560    0.7890   -1.4480 C   0  0  0  0  0  0  0  0  0  0  0  0
   -3.8450    3.1570   -0.4850 C   0  0  0  0  0  0  0  0  0  0  0  0
   -5.3560    3.8180   -2.0110 C   0  0  0  0  0  0  0  0  0  0  0  0
   -4.6950    4.2210   -0.8760 C   0  0  0  0  0  0  0  0  0  0  0  0
   -1.7470   -0.7570   -0.3910 C   0  0  0  0  0  0  0  0  0  0  0  0
   -6.2940    4.6400   -2.6800 C   0  0  0  0  0  0  0  0  0  0  0  0
   -0.2500   -0.6010   -0.2390 C   0  0  0  0  0  0  0  0  0  0  0  0
   -2.0620    1.3860    0.6490 C   0  0  0  0  0  0  0  0  0  0  0  0
   -3.6440    0.0030   -2.3550 O   0  0  0  0  0  0  0  0  0  0  0  0
    0.3080    0.5990    0.2480 C   0  0  0  0  0  0  0  0  0  0  0  0
   -4.9520    5.5080   -0.3430 C   0  0  0  0  0  0  0  0  0  0  0  0
   -0.5860    1.7820    0.5330 C   0  0  0  0  0  0  0  0  0  0  0  0
   -6.5370    5.9070   -2.1400 C   0  0  0  0  0  0  0  0  0  0  0  0
   -5.8770    6.3370   -0.9910 C   0  0  0  0  0  0  0  0  0  0  0  0
   -7.4630    6.6440   -2.8510 O   0  0  0  0  0  0  0  0  0  0  0  0
    0.5980   -1.6850   -0.5200 C   0  0  0  0  0  0  0  0  0  0  0  0
    1.6980    0.7060    0.4110 C   0  0  0  0  0  0  0  0  0  0  0  0
   -7.7640    7.9470   -2.3640 C   0  0  0  0  0  0  0  0  0  0  0  0
    1.9790   -1.5720   -0.3450 C   0  0  0  0  0  0  0  0  0  0  0  0
    2.5280   -0.3770    0.1180 C   0  0  0  0  0  0  0  0  0  0  0  0
   -5.2520    2.0060   -3.1000 H   0  0  0  0  0  0  0  0  0  0  0  0
   -3.1840    3.1430    0.3690 H   0  0  0  0  0  0  0  0  0  0  0  0
   -1.9440   -1.3170   -1.3050 H   0  0  0  0  0  0  0  0  0  0  0  0
   -2.1240   -1.3160    0.4660 H   0  0  0  0  0  0  0  0  0  0  0  0
   -6.8020    4.3020   -3.5720 H   0  0  0  0  0  0  0  0  0  0  0  0
   -2.2150    0.8530    1.5880 H   0  0  0  0  0  0  0  0  0  0  0  0
   -2.6740    2.2880    0.6390 H   0  0  0  0  0  0  0  0  0  0  0  0
   -4.4430    5.8450    0.5480 H   0  0  0  0  0  0  0  0  0  0  0  0
   -0.2720    2.2400    1.4710 H   0  0  0  0  0  0  0  0  0  0  0  0
   -0.4800    2.5040   -0.2770 H   0  0  0  0  0  0  0  0  0  0  0  0
   -6.0810    7.3210   -0.5950 H   0  0  0  0  0  0  0  0  0  0  0  0
    0.1780   -2.6150   -0.8750 H   0  0  0  0  0  0  0  0  0  0  0  0
    2.1280    1.6310    0.7650 H   0  0  0  0  0  0  0  0  0  0  0  0
   -8.5040    8.4160   -3.0130 H   0  0  0  0  0  0  0  0  0  0  0  0
   -6.8560    8.5500   -2.3540 H   0  0  0  0  0  0  0  0  0  0  0  0
   -8.1630    7.8740   -1.3520 H   0  0  0  0  0  0  0  0  0  0  0  0
    2.6220   -2.4110   -0.5680 H   0  0  0  0  0  0  0  0  0  0  0  0
    3.5960   -0.2890    0.2500 H   0  0  0  0  0  0  0  0  0  0  0  0
  1  3  1  0  0  0  0
  1  4  1  0  0  0  0
  1  5  2  0  0  0  0
  2  4  1  0  0  0  0
  2  8  1  0  0  0  0
  2 11  1  0  0  0  0
  3  6  1  0  0  0  0
  3 24  1  0  0  0  0
  4 12  2  0  0  0  0
  5  7  1  0  0  0  0
  5 25  1  0  0  0  0
  6  7  2  0  0  0  0
  6  9  1  0  0  0  0
  7 14  1  0  0  0  0
  8 10  1  0  0  0  0
  8 26  1  0  0  0  0
  8 27  1  0  0  0  0
  9 16  2  0  0  0  0
  9 28  1  0  0  0  0
 10 13  2  0  0  0  0
 10 19  1  0  0  0  0
 11 15  1  0  0  0  0
 11 29  1  0  0  0  0
 11 30  1  0  0  0  0
 13 15  1  0  0  0  0
 13 20  1  0  0  0  0
 14 17  2  0  0  0  0
 14 31  1  0  0  0  0
 15 32  1  0  0  0  0
 15 33  1  0  0  0  0
 16 17  1  0  0  0  0
 16 18  1  0  0  0  0
 17 34  1  0  0  0  0
 18 21  1  0  0  0  0
 19 22  2  0  0  0  0
 19 35  1  0  0  0  0
 20 23  2  0  0  0  0
 20 36  1  0  0  0  0
 21 37  1  0  0  0  0
 21 38  1  0  0  0  0
 21 39  1  0  0  0  0
 22 23  1  0  0  0  0
 22 40  1  0  0  0  0
 23 41  1  0  0  0  0
M  END
>  <$CLUSTER>
594

>  <INDEX>
390088

$$$$
Otava 7119691943
  MOE2020           3D

 51 53  0  0  0  0  0  0  0  0999 V2000
   -3.0850   -0.8460   -1.2120 C   0  0  0  0  0  0  0  0  0  0  0  0
   -2.9640   -0.7430   -2.7010 C   0  0  0  0  0  0  0  0  0  0  0  0
   -4.2520   -0.5540   -0.6160 C   0  0  0  0  0  0  0  0  0  0  0  0
   -4.0810   -0.3730   -3.4150 O   0  0  0  0  0  0  0  0  0  0  0  0
   -5.2670   -0.0980   -2.7390 C   0  0  0  0  0  0  0  0  0  0  0  0
   -5.3920   -0.1700   -1.4160 C   0  0  0  0  0  0  0  0  0  0  0  0
   -6.3580    0.2770   -3.6450 C   0  0  0  0  0  0  0  0  0  0  0  0
   -1.8240   -1.2720   -0.4850 C   0  0  0  0  0  0  0  0  0  0  0  0
   -0.8920   -0.1340   -0.1710 C   0  0  0  0  0  0  0  0  0  0  0  0
   -6.6980    0.1550   -0.8770 C   0  0  0  0  0  0  0  0  0  0  0  0
   -1.9090   -0.9850   -3.2780 O   0  0  0  0  0  0  0  0  0  0  0  0
   -1.1440    1.0230   -0.4960 O   0  0  0  0  0  0  0  0  0  0  0  0
    0.2510   -0.5550    0.4870 N   0  0  0  0  0  0  0  0  0  0  0  0
   -7.5960    0.5790   -3.0870 C   0  0  0  0  0  0  0  0  0  0  0  0
   -7.7660    0.5180   -1.7050 C   0  0  0  0  0  0  0  0  0  0  0  0
   -4.5150   -0.5770    0.8660 C   0  0  0  0  0  0  0  0  0  0  0  0
    3.2740    2.9060    0.0040 C   0  0  0  0  0  0  0  0  0  0  0  0
    4.2910    3.7760    0.4030 C   0  0  0  0  0  0  0  0  0  0  0  0
    3.4170    1.5270    0.1840 C   0  0  0  0  0  0  0  0  0  0  0  0
    1.3050    0.3550    0.8920 C   0  0  0  0  0  0  0  0  0  0  0  0
   -8.6960    0.9410   -3.7870 O   0  0  0  0  0  0  0  0  0  0  0  0
    4.2640    5.1480    0.2690 O   0  0  0  0  0  0  0  0  0  0  0  0
    5.5930    1.8990    1.1800 C   0  0  0  0  0  0  0  0  0  0  0  0
    2.3030    0.5830   -0.2280 C   0  0  0  0  0  0  0  0  0  0  0  0
    5.4500    3.2720    0.9900 C   0  0  0  0  0  0  0  0  0  0  0  0
    4.5780    1.0270    0.7820 C   0  0  0  0  0  0  0  0  0  0  0  0
    3.1030    5.7160   -0.3260 C   0  0  0  0  0  0  0  0  0  0  0  0
   -8.5650    1.0160   -5.2020 C   0  0  0  0  0  0  0  0  0  0  0  0
   -6.2050    0.3170   -4.7130 H   0  0  0  0  0  0  0  0  0  0  0  0
   -1.2920   -1.9890   -1.1100 H   0  0  0  0  0  0  0  0  0  0  0  0
   -2.1120   -1.7490    0.4520 H   0  0  0  0  0  0  0  0  0  0  0  0
   -6.8510    0.1160    0.1910 H   0  0  0  0  0  0  0  0  0  0  0  0
    0.3550   -1.5380    0.6940 H   0  0  0  0  0  0  0  0  0  0  0  0
   -8.7270    0.7520   -1.2710 H   0  0  0  0  0  0  0  0  0  0  0  0
   -5.5510   -0.2950    1.0560 H   0  0  0  0  0  0  0  0  0  0  0  0
   -3.8500    0.1280    1.3640 H   0  0  0  0  0  0  0  0  0  0  0  0
   -4.3350   -1.5810    1.2510 H   0  0  0  0  0  0  0  0  0  0  0  0
    2.3740    3.3000   -0.4450 H   0  0  0  0  0  0  0  0  0  0  0  0
    1.8270   -0.0670    1.7510 H   0  0  0  0  0  0  0  0  0  0  0  0
    0.8600    1.3110    1.1700 H   0  0  0  0  0  0  0  0  0  0  0  0
    6.4910    1.5090    1.6360 H   0  0  0  0  0  0  0  0  0  0  0  0
    2.7400   -0.3750   -0.5100 H   0  0  0  0  0  0  0  0  0  0  0  0
    1.7800    1.0090   -1.0840 H   0  0  0  0  0  0  0  0  0  0  0  0
    6.2370    3.9450    1.2970 H   0  0  0  0  0  0  0  0  0  0  0  0
    4.6900   -0.0360    0.9360 H   0  0  0  0  0  0  0  0  0  0  0  0
    3.2110    6.8000   -0.3710 H   0  0  0  0  0  0  0  0  0  0  0  0
    2.2270    5.4630    0.2720 H   0  0  0  0  0  0  0  0  0  0  0  0
    2.9810    5.3210   -1.3340 H   0  0  0  0  0  0  0  0  0  0  0  0
   -9.5170    1.3160   -5.6400 H   0  0  0  0  0  0  0  0  0  0  0  0
   -8.2770    0.0400   -5.5920 H   0  0  0  0  0  0  0  0  0  0  0  0
   -7.8000    1.7490   -5.4580 H   0  0  0  0  0  0  0  0  0  0  0  0
  1  2  1  0  0  0  0
  1  3  2  0  0  0  0
  1  8  1  0  0  0  0
  2  4  1  0  0  0  0
  2 11  2  0  0  0  0
  3  6  1  0  0  0  0
  3 16  1  0  0  0  0
  4  5  1  0  0  0  0
  5  6  2  0  0  0  0
  5  7  1  0  0  0  0
  6 10  1  0  0  0  0
  7 14  2  0  0  0  0
  7 29  1  0  0  0  0
  8  9  1  0  0  0  0
  8 30  1  0  0  0  0
  8 31  1  0  0  0  0
  9 12  2  0  0  0  0
  9 13  1  0  0  0  0
 10 15  2  0  0  0  0
 10 32  1  0  0  0  0
 13 20  1  0  0  0  0
 13 33  1  0  0  0  0
 14 15  1  0  0  0  0
 14 21  1  0  0  0  0
 15 34  1  0  0  0  0
 16 35  1  0  0  0  0
 16 36  1  0  0  0  0
 16 37  1  0  0  0  0
 17 18  2  0  0  0  0
 17 19  1  0  0  0  0
 17 38  1  0  0  0  0
 18 22  1  0  0  0  0
 18 25  1  0  0  0  0
 19 24  1  0  0  0  0
 19 26  2  0  0  0  0
 20 24  1  0  0  0  0
 20 39  1  0  0  0  0
 20 40  1  0  0  0  0
 21 28  1  0  0  0  0
 22 27  1  0  0  0  0
 23 25  2  0  0  0  0
 23 26  1  0  0  0  0
 23 41  1  0  0  0  0
 24 42  1  0  0  0  0
 24 43  1  0  0  0  0
 25 44  1  0  0  0  0
 26 45  1  0  0  0  0
 27 46  1  0  0  0  0
 27 47  1  0  0  0  0
 27 48  1  0  0  0  0
 28 49  1  0  0  0  0
 28 50  1  0  0  0  0
 28 51  1  0  0  0  0
M  END
>  <$CLUSTER>
595

>  <INDEX>
483917

$$$$
InterBioScreen STOCK5S-83803
  MOE2020           3D

 29 32  0  0  0  0  0  0  0  0999 V2000
   -1.0350   -0.1690   -0.8740 N   0  0  0  0  0  0  0  0  0  0  0  0
   -0.1260   -0.4080    0.1160 C   0  0  0  0  0  0  0  0  0  0  0  0
   -1.8130   -1.2720   -0.9200 C   0  0  0  0  0  0  0  0  0  0  0  0
   -1.2690    0.8600   -1.7230 N   0  0  0  0  0  0  0  0  0  0  0  0
   -3.0050   -1.1040   -2.1300 S   0  0  0  0  0  0  0  0  0  0  0  0
    0.9400    0.4370    0.5870 C   0  0  0  0  0  0  0  0  0  0  0  0
   -0.3650   -1.6060    0.6290 N   0  0  0  0  0  0  0  0  0  0  0  0
   -2.2910    0.5030   -2.4520 C   0  0  0  0  0  0  0  0  0  0  0  0
   -1.4540   -2.1620   -0.0410 N   0  0  0  0  0  0  0  0  0  0  0  0
    1.1680    1.6450    0.0580 N   0  0  0  0  0  0  0  0  0  0  0  0
    1.8550    0.1380    1.6200 C   0  0  0  0  0  0  0  0  0  0  0  0
    2.2550    2.1520    0.7560 O   0  0  0  0  0  0  0  0  0  0  0  0
    2.6560    1.2470    1.6830 C   0  0  0  0  0  0  0  0  0  0  0  0
   -2.8590    1.3540   -3.4990 C   0  0  0  0  0  0  0  0  0  0  0  0
   -2.2640    2.6090   -3.7130 C   0  0  0  0  0  0  0  0  0  0  0  0
   -3.9540    0.9860   -4.2910 C   0  0  0  0  0  0  0  0  0  0  0  0
   -3.8430    3.0950   -5.4750 C   0  0  0  0  0  0  0  0  0  0  0  0
   -2.7530    3.4730   -4.6940 C   0  0  0  0  0  0  0  0  0  0  0  0
   -4.4420    1.8530   -5.2730 C   0  0  0  0  0  0  0  0  0  0  0  0
   -4.5080    4.2230   -6.7810 Br  0  0  0  0  0  0  0  0  0  0  0  0
    3.7450    1.5020    2.5370 C   0  0  0  0  0  0  0  0  0  0  0  0
    1.9100   -0.7580    2.2210 H   0  0  0  0  0  0  0  0  0  0  0  0
   -1.4190    2.9080   -3.1110 H   0  0  0  0  0  0  0  0  0  0  0  0
   -4.4250    0.0250   -4.1420 H   0  0  0  0  0  0  0  0  0  0  0  0
   -2.2860    4.4350   -4.8480 H   0  0  0  0  0  0  0  0  0  0  0  0
   -5.2870    1.5590   -5.8780 H   0  0  0  0  0  0  0  0  0  0  0  0
    3.8950    0.6490    3.1990 H   0  0  0  0  0  0  0  0  0  0  0  0
    3.5400    2.3920    3.1320 H   0  0  0  0  0  0  0  0  0  0  0  0
    4.6440    1.6620    1.9420 H   0  0  0  0  0  0  0  0  0  0  0  0
  1  2  1  0  0  0  0
  1  3  1  0  0  0  0
  1  4  1  0  0  0  0
  2  6  1  0  0  0  0
  2  7  2  0  0  0  0
  3  5  1  0  0  0  0
  3  9  2  0  0  0  0
  4  8  2  0  0  0  0
  5  8  1  0  0  0  0
  6 10  2  0  0  0  0
  6 11  1  0  0  0  0
  7  9  1  0  0  0  0
  8 14  1  0  0  0  0
 10 12  1  0  0  0  0
 11 13  2  0  0  0  0
 11 22  1  0  0  0  0
 12 13  1  0  0  0  0
 13 21  1  0  0  0  0
 14 15  2  0  0  0  0
 14 16  1  0  0  0  0
 15 18  1  0  0  0  0
 15 23  1  0  0  0  0
 16 19  2  0  0  0  0
 16 24  1  0  0  0  0
 17 18  2  0  0  0  0
 17 19  1  0  0  0  0
 17 20  1  0  0  0  0
 18 25  1  0  0  0  0
 19 26  1  0  0  0  0
 21 27  1  0  0  0  0
 21 28  1  0  0  0  0
 21 29  1  0  0  0  0
M  END
>  <$CLUSTER>
596

>  <INDEX>
390790

$$$$
InterBioScreen STOCK5S-26244
  MOE2020           3D

 49 51  0  0  0  0  0  0  0  0999 V2000
   -2.4660    0.5200   -0.4650 N   0  0  0  0  0  0  0  0  0  0  0  0
   -3.3660    0.8440   -1.4320 C   0  0  0  0  0  0  0  0  0  0  0  0
   -0.2500   -0.6010   -0.2390 C   0  0  0  0  0  0  0  0  0  0  0  0
   -1.7470   -0.7570   -0.3910 C   0  0  0  0  0  0  0  0  0  0  0  0
    0.3080    0.5990    0.2480 C   0  0  0  0  0  0  0  0  0  0  0  0
    0.5980   -1.6850   -0.5200 C   0  0  0  0  0  0  0  0  0  0  0  0
    1.9790   -1.5720   -0.3450 C   0  0  0  0  0  0  0  0  0  0  0  0
    2.5280   -0.3770    0.1180 C   0  0  0  0  0  0  0  0  0  0  0  0
    1.6980    0.7060    0.4110 C   0  0  0  0  0  0  0  0  0  0  0  0
   -4.3980    2.1670   -1.4180 S   0  0  0  0  0  0  0  0  0  0  0  0
   -2.0620    1.3860    0.6490 C   0  0  0  0  0  0  0  0  0  0  0  0
   -3.4230    0.0170   -2.5080 N   0  0  0  0  0  0  0  0  0  0  0  0
   -0.5860    1.7820    0.5330 C   0  0  0  0  0  0  0  0  0  0  0  0
    2.8730   -2.5860   -0.6110 O   0  0  0  0  0  0  0  0  0  0  0  0
    3.8980   -0.3560    0.2620 O   0  0  0  0  0  0  0  0  0  0  0  0
   -4.1780   -0.0460   -3.7120 C   0  0  0  0  0  0  0  0  0  0  0  0
   -6.2920   -0.8970   -4.8070 C   0  0  0  0  0  0  0  0  0  0  0  0
   -5.4780   -0.8110   -3.5250 C   0  0  0  0  0  0  0  0  0  0  0  0
    4.4910    0.8460    0.7370 C   0  0  0  0  0  0  0  0  0  0  0  0
    2.3470   -3.8180   -1.0890 C   0  0  0  0  0  0  0  0  0  0  0  0
   -6.0870   -1.9520   -5.7010 C   0  0  0  0  0  0  0  0  0  0  0  0
   -7.2130    0.1040   -5.1230 C   0  0  0  0  0  0  0  0  0  0  0  0
   -7.9420    0.0370   -6.3120 C   0  0  0  0  0  0  0  0  0  0  0  0
   -6.8160   -2.0170   -6.8890 C   0  0  0  0  0  0  0  0  0  0  0  0
   -7.7430   -1.0230   -7.1930 C   0  0  0  0  0  0  0  0  0  0  0  0
   -1.9440   -1.3170   -1.3050 H   0  0  0  0  0  0  0  0  0  0  0  0
   -2.1240   -1.3160    0.4660 H   0  0  0  0  0  0  0  0  0  0  0  0
    0.1780   -2.6150   -0.8750 H   0  0  0  0  0  0  0  0  0  0  0  0
    2.1280    1.6310    0.7650 H   0  0  0  0  0  0  0  0  0  0  0  0
   -2.2150    0.8530    1.5880 H   0  0  0  0  0  0  0  0  0  0  0  0
   -2.6740    2.2880    0.6390 H   0  0  0  0  0  0  0  0  0  0  0  0
   -2.7640   -0.7450   -2.4350 H   0  0  0  0  0  0  0  0  0  0  0  0
   -0.4800    2.5040   -0.2770 H   0  0  0  0  0  0  0  0  0  0  0  0
   -0.2720    2.2400    1.4710 H   0  0  0  0  0  0  0  0  0  0  0  0
   -3.5820   -0.5450   -4.4760 H   0  0  0  0  0  0  0  0  0  0  0  0
   -4.4090    0.9680   -4.0370 H   0  0  0  0  0  0  0  0  0  0  0  0
   -6.0750   -0.3060   -2.7650 H   0  0  0  0  0  0  0  0  0  0  0  0
   -5.2440   -1.8220   -3.1910 H   0  0  0  0  0  0  0  0  0  0  0  0
    5.5720    0.7180    0.8000 H   0  0  0  0  0  0  0  0  0  0  0  0
    4.0940    1.0810    1.7250 H   0  0  0  0  0  0  0  0  0  0  0  0
    4.2620    1.6610    0.0500 H   0  0  0  0  0  0  0  0  0  0  0  0
    3.1630   -4.5210   -1.2550 H   0  0  0  0  0  0  0  0  0  0  0  0
    1.8180   -3.6480   -2.0270 H   0  0  0  0  0  0  0  0  0  0  0  0
    1.6570   -4.2290   -0.3520 H   0  0  0  0  0  0  0  0  0  0  0  0
   -5.3620   -2.7190   -5.4710 H   0  0  0  0  0  0  0  0  0  0  0  0
   -7.3620    0.9320   -4.4460 H   0  0  0  0  0  0  0  0  0  0  0  0
   -8.6610    0.8080   -6.5490 H   0  0  0  0  0  0  0  0  0  0  0  0
   -6.6610   -2.8380   -7.5730 H   0  0  0  0  0  0  0  0  0  0  0  0
   -8.3080   -1.0740   -8.1120 H   0  0  0  0  0  0  0  0  0  0  0  0
  1  2  1  0  0  0  0
  1  4  1  0  0  0  0
  1 11  1  0  0  0  0
  2 10  2  0  0  0  0
  2 12  1  0  0  0  0
  3  4  1  0  0  0  0
  3  5  1  0  0  0  0
  3  6  2  0  0  0  0
  4 26  1  0  0  0  0
  4 27  1  0  0  0  0
  5  9  2  0  0  0  0
  5 13  1  0  0  0  0
  6  7  1  0  0  0  0
  6 28  1  0  0  0  0
  7  8  2  0  0  0  0
  7 14  1  0  0  0  0
  8  9  1  0  0  0  0
  8 15  1  0  0  0  0
  9 29  1  0  0  0  0
 11 13  1  0  0  0  0
 11 30  1  0  0  0  0
 11 31  1  0  0  0  0
 12 16  1  0  0  0  0
 12 32  1  0  0  0  0
 13 33  1  0  0  0  0
 13 34  1  0  0  0  0
 14 20  1  0  0  0  0
 15 19  1  0  0  0  0
 16 18  1  0  0  0  0
 16 35  1  0  0  0  0
 16 36  1  0  0  0  0
 17 18  1  0  0  0  0
 17 21  1  0  0  0  0
 17 22  2  0  0  0  0
 18 37  1  0  0  0  0
 18 38  1  0  0  0  0
 19 39  1  0  0  0  0
 19 40  1  0  0  0  0
 19 41  1  0  0  0  0
 20 42  1  0  0  0  0
 20 43  1  0  0  0  0
 20 44  1  0  0  0  0
 21 24  2  0  0  0  0
 21 45  1  0  0  0  0
 22 23  1  0  0  0  0
 22 46  1  0  0  0  0
 23 25  2  0  0  0  0
 23 47  1  0  0  0  0
 24 25  1  0  0  0  0
 24 48  1  0  0  0  0
 25 49  1  0  0  0  0
M  END
>  <$CLUSTER>
597

>  <INDEX>
369705

$$$$
InterBioScreen STOCK5S-90980
  MOE2020           3D

 53 58  0  0  1  0  0  0  0  0999 V2000
    0.5930   -0.6360   -0.5890 C   0  0  0  0  0  0  0  0  0  0  0  0
    0.0130   -0.7660    0.7070 C   0  0  0  0  0  0  0  0  0  0  0  0
    0.3510    0.5340   -1.2440 C   0  0  0  0  0  0  0  0  0  0  0  0
    0.0300   -1.6960    1.6370 N   0  0  0  0  0  0  0  0  0  0  0  0
   -0.7460    0.2810    1.1420 N   0  0  0  0  0  0  0  0  0  0  0  0
    2.1950   -1.2200   -2.4370 C   0  0  0  0  0  0  0  0  0  0  0  0
   -1.2500    0.0630    2.3630 N   0  0  0  0  0  0  0  0  0  0  0  0
    1.4560   -1.7210   -1.2230 C   0  0  3  0  0  0  0  0  0  0  0  0
   -0.7500   -1.1490    2.6220 C   0  0  0  0  0  0  0  0  0  0  0  0
    1.8890   -0.0470   -3.0090 C   0  0  0  0  0  0  0  0  0  0  0  0
   -0.4420    1.5650   -0.7520 N   0  0  0  0  0  0  0  0  0  0  0  0
    0.9030    0.7840   -2.5010 O   0  0  0  0  0  0  0  0  0  0  0  0
    3.3280   -2.0170   -2.9870 C   0  0  0  0  0  0  0  0  0  0  0  0
   -0.9770    1.4330    0.4240 C   0  0  0  0  0  0  0  0  0  0  0  0
    2.5470    0.4910   -4.2470 C   0  0  0  0  0  0  0  0  0  0  0  0
    3.2250   -0.5990   -5.1020 C   0  0  0  0  0  0  0  0  0  0  0  0
    4.0840   -1.4890   -4.1900 C   0  0  0  0  0  0  0  0  0  0  0  0
    0.5830   -2.9300   -1.5910 C   0  0  0  0  0  0  0  0  0  0  0  0
    3.6860   -3.0570   -2.4370 O   0  0  0  0  0  0  0  0  0  0  0  0
   -1.0440   -1.8190    3.8780 C   0  0  0  0  0  0  0  0  0  0  0  0
   -1.2490   -3.9210   -2.8680 N   0  0  0  0  0  0  0  0  0  0  0  0
   -0.4600   -2.8710   -2.5140 C   0  0  0  0  0  0  0  0  0  0  0  0
    2.1700   -1.4470   -5.8440 C   0  0  0  0  0  0  0  0  0  0  0  0
    4.1250    0.0710   -6.1550 C   0  0  0  0  0  0  0  0  0  0  0  0
   -0.9810   -5.1060   -2.2640 C   0  0  0  0  0  0  0  0  0  0  0  0
   -0.2880   -2.9160    4.3020 C   0  0  0  0  0  0  0  0  0  0  0  0
   -2.0950   -1.3580    4.6810 C   0  0  0  0  0  0  0  0  0  0  0  0
    0.8210   -4.1880   -0.9910 C   0  0  0  0  0  0  0  0  0  0  0  0
    0.0310   -5.2840   -1.3310 C   0  0  0  0  0  0  0  0  0  0  0  0
   -2.3930   -1.9920    5.8890 C   0  0  0  0  0  0  0  0  0  0  0  0
   -0.5860   -3.5500    5.5130 C   0  0  0  0  0  0  0  0  0  0  0  0
   -1.6380   -3.0900    6.3050 C   0  0  0  0  0  0  0  0  0  0  0  0
    2.2060   -2.0200   -0.4910 H   0  0  0  0  0  0  0  0  0  0  0  0
   -1.5960    2.2180    0.8340 H   0  0  0  0  0  0  0  0  0  0  0  0
    3.3040    1.2170   -3.9490 H   0  0  0  0  0  0  0  0  0  0  0  0
    1.7890    0.9850   -4.8550 H   0  0  0  0  0  0  0  0  0  0  0  0
    4.4440   -2.3370   -4.7730 H   0  0  0  0  0  0  0  0  0  0  0  0
    4.9330   -0.9050   -3.8360 H   0  0  0  0  0  0  0  0  0  0  0  0
   -0.6570   -1.9190   -2.9840 H   0  0  0  0  0  0  0  0  0  0  0  0
    1.5180   -1.9330   -5.1180 H   0  0  0  0  0  0  0  0  0  0  0  0
    2.6710   -2.2040   -6.4470 H   0  0  0  0  0  0  0  0  0  0  0  0
    1.5750   -0.8020   -6.4910 H   0  0  0  0  0  0  0  0  0  0  0  0
    4.8800    0.6770   -5.6550 H   0  0  0  0  0  0  0  0  0  0  0  0
    3.5180    0.7060   -6.8000 H   0  0  0  0  0  0  0  0  0  0  0  0
    4.6140   -0.6960   -6.7560 H   0  0  0  0  0  0  0  0  0  0  0  0
   -1.5900   -5.9590   -2.5240 H   0  0  0  0  0  0  0  0  0  0  0  0
    0.5280   -3.2750    3.6930 H   0  0  0  0  0  0  0  0  0  0  0  0
   -2.6790   -0.5070    4.3640 H   0  0  0  0  0  0  0  0  0  0  0  0
    1.6160   -4.2990   -0.2680 H   0  0  0  0  0  0  0  0  0  0  0  0
    0.2020   -6.2500   -0.8790 H   0  0  0  0  0  0  0  0  0  0  0  0
   -3.2070   -1.6330    6.5010 H   0  0  0  0  0  0  0  0  0  0  0  0
    0.0000   -4.3980    5.8350 H   0  0  0  0  0  0  0  0  0  0  0  0
   -1.8680   -3.5820    7.2380 H   0  0  0  0  0  0  0  0  0  0  0  0
  1  2  1  0  0  0  0
  1  3  2  0  0  0  0
  1  8  1  0  0  0  0
  2  4  2  0  0  0  0
  2  5  1  0  0  0  0
  3 11  1  0  0  0  0
  3 12  1  0  0  0  0
  4  9  1  0  0  0  0
  5  7  1  0  0  0  0
  5 14  1  0  0  0  0
  6  8  1  0  0  0  0
  6 10  2  0  0  0  0
  6 13  1  0  0  0  0
  7  9  2  0  0  0  0
  8 18  1  0  0  0  0
  8 33  1  0  0  0  0
  9 20  1  0  0  0  0
 10 12  1  0  0  0  0
 10 15  1  0  0  0  0
 11 14  2  0  0  0  0
 13 17  1  0  0  0  0
 13 19  2  0  0  0  0
 14 34  1  0  0  0  0
 15 16  1  0  0  0  0
 15 35  1  0  0  0  0
 15 36  1  0  0  0  0
 16 17  1  0  0  0  0
 16 23  1  0  0  0  0
 16 24  1  0  0  0  0
 17 37  1  0  0  0  0
 17 38  1  0  0  0  0
 18 22  2  0  0  0  0
 18 28  1  0  0  0  0
 20 26  1  0  0  0  0
 20 27  2  0  0  0  0
 21 22  1  0  0  0  0
 21 25  2  0  0  0  0
 22 39  1  0  0  0  0
 23 40  1  0  0  0  0
 23 41  1  0  0  0  0
 23 42  1  0  0  0  0
 24 43  1  0  0  0  0
 24 44  1  0  0  0  0
 24 45  1  0  0  0  0
 25 29  1  0  0  0  0
 25 46  1  0  0  0  0
 26 31  2  0  0  0  0
 26 47  1  0  0  0  0
 27 30  1  0  0  0  0
 27 48  1  0  0  0  0
 28 29  2  0  0  0  0
 28 49  1  0  0  0  0
 29 50  1  0  0  0  0
 30 32  2  0  0  0  0
 30 51  1  0  0  0  0
 31 32  1  0  0  0  0
 31 52  1  0  0  0  0
 32 53  1  0  0  0  0
M  END
>  <$CLUSTER>
598

>  <INDEX>
395789

$$$$
InterBioScreen STOCK5S-92205
  MOE2020           3D

 56 61  0  0  1  0  0  0  0  0999 V2000
    0.3130    0.2800   -1.3110 C   0  0  0  0  0  0  0  0  0  0  0  0
    0.3130   -1.0390   -0.8020 C   0  0  0  0  0  0  0  0  0  0  0  0
   -0.4700    1.0630    0.7880 N   0  0  0  0  0  0  0  0  0  0  0  0
    0.8100   -1.8690   -1.7990 C   0  0  0  0  0  0  0  0  0  0  0  0
   -0.0960    1.4190   -0.5260 C   0  0  0  0  0  0  0  0  0  0  0  0
   -0.5160   -0.2520    1.3480 C   0  0  0  0  0  0  0  0  0  0  0  0
    0.9740   -1.0760   -2.9190 N   0  0  0  0  0  0  0  0  0  0  0  0
   -0.1280   -1.3180    0.4970 N   0  0  0  0  0  0  0  0  0  0  0  0
    0.7340    0.2490   -2.6300 C   0  0  0  0  0  0  0  0  0  0  0  0
    1.1710   -3.3260   -1.8530 C   0  0  3  0  0  0  0  0  0  0  0  0
    2.5320   -3.6120   -1.2170 C   0  0  0  0  0  0  0  0  0  0  0  0
    0.8830    1.3320   -3.6000 C   0  0  0  0  0  0  0  0  0  0  0  0
    3.8510   -4.5130    0.6050 C   0  0  0  0  0  0  0  0  0  0  0  0
    2.6100   -4.2670    0.0150 C   0  0  0  0  0  0  0  0  0  0  0  0
   -0.8840   -0.4390    2.5140 O   0  0  0  0  0  0  0  0  0  0  0  0
   -0.1080    2.5600   -0.9790 O   0  0  0  0  0  0  0  0  0  0  0  0
    5.0210   -4.1060   -0.0300 C   0  0  0  0  0  0  0  0  0  0  0  0
    4.0900   -5.1260    1.7740 O   0  0  0  0  0  0  0  0  0  0  0  0
    1.1450   -3.7920   -3.2150 O   0  0  0  0  0  0  0  0  0  0  0  0
    6.1180   -4.4170    0.6700 O   0  0  0  0  0  0  0  0  0  0  0  0
    5.5350   -5.0680    1.8210 C   0  0  0  0  0  0  0  0  0  0  0  0
    3.7120   -3.2030   -1.8500 C   0  0  0  0  0  0  0  0  0  0  0  0
   -0.8690    2.1450    1.6840 C   0  0  0  0  0  0  0  0  0  0  0  0
    1.3280   -1.6170   -4.2220 C   0  0  0  0  0  0  0  0  0  0  0  0
    4.9530   -3.4500   -1.2580 C   0  0  0  0  0  0  0  0  0  0  0  0
   -0.0920    1.5440   -4.5830 C   0  0  0  0  0  0  0  0  0  0  0  0
    2.0040    2.1710   -3.5500 C   0  0  0  0  0  0  0  0  0  0  0  0
   -0.2240   -2.6770    1.0150 C   0  0  0  0  0  0  0  0  0  0  0  0
    1.9250   -3.0060   -4.1140 C   0  0  0  0  0  0  0  0  0  0  0  0
    0.0560    2.5800   -5.5070 C   0  0  0  0  0  0  0  0  0  0  0  0
    2.1480    3.2060   -4.4750 C   0  0  0  0  0  0  0  0  0  0  0  0
    1.1750    3.4090   -5.4540 C   0  0  0  0  0  0  0  0  0  0  0  0
    1.3310    4.5150   -6.4460 C   0  0  0  0  0  0  0  0  0  0  0  0
    0.4260   -3.8680   -1.2700 H   0  0  0  0  0  0  0  0  0  0  0  0
    1.7060   -4.5840    0.5130 H   0  0  0  0  0  0  0  0  0  0  0  0
    5.9210   -6.0860    1.8750 H   0  0  0  0  0  0  0  0  0  0  0  0
    5.8300   -4.5200    2.7150 H   0  0  0  0  0  0  0  0  0  0  0  0
    3.6630   -2.6940   -2.8010 H   0  0  0  0  0  0  0  0  0  0  0  0
   -0.7970    3.0970    1.1580 H   0  0  0  0  0  0  0  0  0  0  0  0
   -0.2110    2.1590    2.5530 H   0  0  0  0  0  0  0  0  0  0  0  0
   -1.8970    1.9870    2.0100 H   0  0  0  0  0  0  0  0  0  0  0  0
    2.0560   -0.9560   -4.6920 H   0  0  0  0  0  0  0  0  0  0  0  0
    0.4310   -1.6660   -4.8390 H   0  0  0  0  0  0  0  0  0  0  0  0
    5.8600   -3.1330   -1.7520 H   0  0  0  0  0  0  0  0  0  0  0  0
   -0.9610    0.9040   -4.6260 H   0  0  0  0  0  0  0  0  0  0  0  0
    2.7590    2.0160   -2.7930 H   0  0  0  0  0  0  0  0  0  0  0  0
    0.1070   -3.3810    0.2510 H   0  0  0  0  0  0  0  0  0  0  0  0
   -1.2580   -2.8910    1.2830 H   0  0  0  0  0  0  0  0  0  0  0  0
    0.4080   -2.7750    1.8980 H   0  0  0  0  0  0  0  0  0  0  0  0
    1.9300   -3.4770   -5.0970 H   0  0  0  0  0  0  0  0  0  0  0  0
    2.9470   -2.9340   -3.7410 H   0  0  0  0  0  0  0  0  0  0  0  0
   -0.6980    2.7390   -6.2640 H   0  0  0  0  0  0  0  0  0  0  0  0
    3.0140    3.8510   -4.4330 H   0  0  0  0  0  0  0  0  0  0  0  0
    0.4790    4.5160   -7.1260 H   0  0  0  0  0  0  0  0  0  0  0  0
    2.2490    4.3660   -7.0150 H   0  0  0  0  0  0  0  0  0  0  0  0
    1.3790    5.4690   -5.9220 H   0  0  0  0  0  0  0  0  0  0  0  0
  1  2  1  0  0  0  0
  1  5  1  0  0  0  0
  1  9  2  0  0  0  0
  2  4  2  0  0  0  0
  2  8  1  0  0  0  0
  3  5  1  0  0  0  0
  3  6  1  0  0  0  0
  3 23  1  0  0  0  0
  4  7  1  0  0  0  0
  4 10  1  0  0  0  0
  5 16  2  0  0  0  0
  6  8  1  0  0  0  0
  6 15  2  0  0  0  0
  7  9  1  0  0  0  0
  7 24  1  0  0  0  0
  8 28  1  0  0  0  0
  9 12  1  0  0  0  0
 10 11  1  0  0  0  0
 10 19  1  0  0  0  0
 10 34  1  0  0  0  0
 11 14  2  0  0  0  0
 11 22  1  0  0  0  0
 12 26  2  0  0  0  0
 12 27  1  0  0  0  0
 13 14  1  0  0  0  0
 13 17  2  0  0  0  0
 13 18  1  0  0  0  0
 14 35  1  0  0  0  0
 17 20  1  0  0  0  0
 17 25  1  0  0  0  0
 18 21  1  0  0  0  0
 19 29  1  0  0  0  0
 20 21  1  0  0  0  0
 21 36  1  0  0  0  0
 21 37  1  0  0  0  0
 22 25  2  0  0  0  0
 22 38  1  0  0  0  0
 23 39  1  0  0  0  0
 23 40  1  0  0  0  0
 23 41  1  0  0  0  0
 24 29  1  0  0  0  0
 24 42  1  0  0  0  0
 24 43  1  0  0  0  0
 25 44  1  0  0  0  0
 26 30  1  0  0  0  0
 26 45  1  0  0  0  0
 27 31  2  0  0  0  0
 27 46  1  0  0  0  0
 28 47  1  0  0  0  0
 28 48  1  0  0  0  0
 28 49  1  0  0  0  0
 29 50  1  0  0  0  0
 29 51  1  0  0  0  0
 30 32  2  0  0  0  0
 30 52  1  0  0  0  0
 31 32  1  0  0  0  0
 31 53  1  0  0  0  0
 32 33  1  0  0  0  0
 33 54  1  0  0  0  0
 33 55  1  0  0  0  0
 33 56  1  0  0  0  0
M  END
>  <$CLUSTER>
599

>  <INDEX>
396646

$$$$
InterBioScreen STOCK5S-86658
  MOE2020           3D

 52 56  0  0  0  0  0  0  0  0999 V2000
    8.0790   -2.7720   -1.4680 C   0  0  0  0  0  0  0  0  0  0  0  0
    8.0150   -2.5650   -0.0890 C   0  0  0  0  0  0  0  0  0  0  0  0
   -1.7270   -0.1590    0.3230 S   0  0  0  0  0  0  0  0  0  0  0  0
    8.9810   -3.6310   -2.0560 O   0  0  0  0  0  0  0  0  0  0  0  0
    8.9870   -3.3170    0.7570 C   0  0  0  0  0  0  0  0  0  0  0  0
    9.8660   -4.3650   -1.2990 C   0  0  0  0  0  0  0  0  0  0  0  0
    6.1700   -1.0170   -0.3980 C   0  0  0  0  0  0  0  0  0  0  0  0
    9.8330   -4.1760    0.1670 C   0  0  0  0  0  0  0  0  0  0  0  0
    7.1990   -2.0990   -2.3180 C   0  0  0  0  0  0  0  0  0  0  0  0
    6.2610   -1.2170   -1.7820 C   0  0  0  0  0  0  0  0  0  0  0  0
    4.1470    0.1840   -0.8190 N   0  0  0  0  0  0  0  0  0  0  0  0
    5.4130   -0.5820   -2.6770 O   0  0  0  0  0  0  0  0  0  0  0  0
    7.0670   -1.6900    0.4460 C   0  0  0  0  0  0  0  0  0  0  0  0
    5.1310   -0.0790    0.2240 C   0  0  0  0  0  0  0  0  0  0  0  0
    4.6330    0.5240   -2.1500 C   0  0  0  0  0  0  0  0  0  0  0  0
    0.0040   -0.0300   -0.0060 C   0  0  0  0  0  0  0  0  0  0  0  0
    2.7330    0.1110   -0.5420 C   0  0  0  0  0  0  0  0  0  0  0  0
   -2.4130   -0.4580   -0.9230 O   0  0  0  0  0  0  0  0  0  0  0  0
   -1.9210   -1.0130    1.4810 O   0  0  0  0  0  0  0  0  0  0  0  0
   10.6560   -5.1390   -1.8330 O   0  0  0  0  0  0  0  0  0  0  0  0
   -2.1450    1.4000    0.7670 N   0  0  0  0  0  0  0  0  0  0  0  0
    0.4420    0.2930   -1.2940 C   0  0  0  0  0  0  0  0  0  0  0  0
    0.9250   -0.2930    1.0120 C   0  0  0  0  0  0  0  0  0  0  0  0
    1.8110    0.3660   -1.5580 C   0  0  0  0  0  0  0  0  0  0  0  0
    2.2920   -0.2180    0.7410 C   0  0  0  0  0  0  0  0  0  0  0  0
    8.9910   -3.0880    2.2520 C   0  0  0  0  0  0  0  0  0  0  0  0
    7.2650   -2.3230   -3.7900 C   0  0  0  0  0  0  0  0  0  0  0  0
   10.8130   -5.0270    0.9420 C   0  0  0  0  0  0  0  0  0  0  0  0
   10.2040   -3.6830    2.9700 C   0  0  0  0  0  0  0  0  0  0  0  0
   10.5260   -5.0720    2.4410 C   0  0  0  0  0  0  0  0  0  0  0  0
    7.0240   -1.5310    1.5130 H   0  0  0  0  0  0  0  0  0  0  0  0
    5.6030    0.8510    0.5420 H   0  0  0  0  0  0  0  0  0  0  0  0
    4.6550   -0.5560    1.0810 H   0  0  0  0  0  0  0  0  0  0  0  0
    5.2590    1.4150   -2.0920 H   0  0  0  0  0  0  0  0  0  0  0  0
    3.7860    0.7170   -2.8080 H   0  0  0  0  0  0  0  0  0  0  0  0
   -2.0200    2.0190   -0.0210 H   0  0  0  0  0  0  0  0  0  0  0  0
   -1.5560    1.7020    1.5300 H   0  0  0  0  0  0  0  0  0  0  0  0
   -0.2740    0.4850   -2.0790 H   0  0  0  0  0  0  0  0  0  0  0  0
    0.5810   -0.5530    2.0020 H   0  0  0  0  0  0  0  0  0  0  0  0
    2.1570    0.6200   -2.5490 H   0  0  0  0  0  0  0  0  0  0  0  0
    3.0090   -0.4150    1.5240 H   0  0  0  0  0  0  0  0  0  0  0  0
    8.0910   -3.5380    2.6700 H   0  0  0  0  0  0  0  0  0  0  0  0
    8.9780   -2.0130    2.4340 H   0  0  0  0  0  0  0  0  0  0  0  0
    8.0550   -3.0400   -4.0130 H   0  0  0  0  0  0  0  0  0  0  0  0
    7.4780   -1.3790   -4.2920 H   0  0  0  0  0  0  0  0  0  0  0  0
    6.3100   -2.7130   -4.1410 H   0  0  0  0  0  0  0  0  0  0  0  0
   11.8140   -4.6220    0.7940 H   0  0  0  0  0  0  0  0  0  0  0  0
   10.7710   -6.0440    0.5520 H   0  0  0  0  0  0  0  0  0  0  0  0
    9.9890   -3.7490    4.0370 H   0  0  0  0  0  0  0  0  0  0  0  0
   11.0650   -3.0330    2.8120 H   0  0  0  0  0  0  0  0  0  0  0  0
   11.4020   -5.4590    2.9610 H   0  0  0  0  0  0  0  0  0  0  0  0
    9.6760   -5.7300    2.6230 H   0  0  0  0  0  0  0  0  0  0  0  0
  1  2  1  0  0  0  0
  1  4  1  0  0  0  0
  1  9  2  0  0  0  0
  2  5  1  0  0  0  0
  2 13  2  0  0  0  0
  3 16  1  0  0  0  0
  3 18  2  0  0  0  0
  3 19  2  0  0  0  0
  3 21  1  0  0  0  0
  4  6  1  0  0  0  0
  5  8  2  0  0  0  0
  5 26  1  0  0  0  0
  6  8  1  0  0  0  0
  6 20  2  0  0  0  0
  7 10  2  0  0  0  0
  7 13  1  0  0  0  0
  7 14  1  0  0  0  0
  8 28  1  0  0  0  0
  9 10  1  0  0  0  0
  9 27  1  0  0  0  0
 10 12  1  0  0  0  0
 11 14  1  0  0  0  0
 11 15  1  0  0  0  0
 11 17  1  0  0  0  0
 12 15  1  0  0  0  0
 13 31  1  0  0  0  0
 14 32  1  0  0  0  0
 14 33  1  0  0  0  0
 15 34  1  0  0  0  0
 15 35  1  0  0  0  0
 16 22  2  0  0  0  0
 16 23  1  0  0  0  0
 17 24  2  0  0  0  0
 17 25  1  0  0  0  0
 21 36  1  0  0  0  0
 21 37  1  0  0  0  0
 22 24  1  0  0  0  0
 22 38  1  0  0  0  0
 23 25  2  0  0  0  0
 23 39  1  0  0  0  0
 24 40  1  0  0  0  0
 25 41  1  0  0  0  0
 26 29  1  0  0  0  0
 26 42  1  0  0  0  0
 26 43  1  0  0  0  0
 27 44  1  0  0  0  0
 27 45  1  0  0  0  0
 27 46  1  0  0  0  0
 28 30  1  0  0  0  0
 28 47  1  0  0  0  0
 28 48  1  0  0  0  0
 29 30  1  0  0  0  0
 29 49  1  0  0  0  0
 29 50  1  0  0  0  0
 30 51  1  0  0  0  0
 30 52  1  0  0  0  0
M  END
>  <$CLUSTER>
600

>  <INDEX>
392786

$$$$
InterBioScreen STOCK5S-84158
  MOE2020           3D

 52 55  0  0  1  0  0  0  0  0999 V2000
    1.5580    1.8690    0.7340 C   0  0  3  0  0  0  0  0  0  0  0  0
    0.7770    0.6440    1.2320 C   0  0  1  0  0  0  0  0  0  0  0  0
   -0.7090    0.9760    1.0560 C   0  0  2  0  0  0  0  0  0  0  0  0
    0.9860   -0.6160    0.4330 C   0  0  0  0  0  0  0  0  0  0  0  0
   -0.1670   -0.8570   -0.2850 N   0  0  0  0  0  0  0  0  0  0  0  0
   -1.1790    0.0460   -0.0340 C   0  0  0  0  0  0  0  0  0  0  0  0
    1.9150    1.8770   -0.7580 C   0  0  0  0  0  0  0  0  0  0  0  0
    0.5670    2.9880    0.9810 N   0  3  0  0  0  0  0  0  0  0  0  0
    2.8050    2.1390    1.5760 C   0  0  0  0  0  0  0  0  0  0  0  0
   -0.7990    2.4460    0.6640 C   0  0  3  0  0  0  0  0  0  0  0  0
    3.3310    2.0280   -0.7150 N   0  0  0  0  0  0  0  0  0  0  0  0
    3.8440    2.1860    0.5670 C   0  0  0  0  0  0  0  0  0  0  0  0
   -2.2780    0.1090   -0.5660 O   0  0  0  0  0  0  0  0  0  0  0  0
    2.0270   -1.2570    0.4230 O   0  0  0  0  0  0  0  0  0  0  0  0
    3.0850    2.2480    2.8540 C   0  0  0  0  0  0  0  0  0  0  0  0
    1.2040    1.6980   -1.6510 O   0  0  0  0  0  0  0  0  0  0  0  0
    5.1630    2.3820    0.9240 C   0  0  0  0  0  0  0  0  0  0  0  0
   -1.8420    3.2270    1.4430 C   0  0  0  0  0  0  0  0  0  0  0  0
   -0.2970   -1.9540   -1.2350 C   0  0  0  0  0  0  0  0  0  0  0  0
    4.4130    2.4480    3.2420 C   0  0  0  0  0  0  0  0  0  0  0  0
    5.4430    2.5140    2.2850 C   0  0  0  0  0  0  0  0  0  0  0  0
    4.7980    2.5870    4.5150 F   0  0  0  0  0  0  0  0  0  0  0  0
   -1.9980    4.6780    0.9430 C   0  0  0  0  0  0  0  0  0  0  0  0
   -1.7420    3.2300    2.9720 C   0  0  0  0  0  0  0  0  0  0  0  0
    0.1540   -1.5340   -2.6250 C   0  0  0  0  0  0  0  0  0  0  0  0
    0.0110   -2.6740   -3.6310 C   0  0  0  0  0  0  0  0  0  0  0  0
    0.4600   -2.2560   -5.0220 C   0  0  0  0  0  0  0  0  0  0  0  0
    1.1160    0.4570    2.2510 H   0  0  0  0  0  0  0  0  0  0  0  0
   -1.3240    0.8410    1.9450 H   0  0  0  0  0  0  0  0  0  0  0  0
    0.6080    3.2800    1.9470 H   0  0  0  0  0  0  0  0  0  0  0  0
    0.7760    3.7740    0.3820 H   0  0  0  0  0  0  0  0  0  0  0  0
   -1.0980    2.5410   -0.3800 H   0  0  0  0  0  0  0  0  0  0  0  0
    3.9100    2.0210   -1.5420 H   0  0  0  0  0  0  0  0  0  0  0  0
    2.3010    2.1840    3.5940 H   0  0  0  0  0  0  0  0  0  0  0  0
    5.9460    2.4310    0.1810 H   0  0  0  0  0  0  0  0  0  0  0  0
   -2.7340    2.6410    1.2230 H   0  0  0  0  0  0  0  0  0  0  0  0
    0.3170   -2.7900   -0.8990 H   0  0  0  0  0  0  0  0  0  0  0  0
   -1.3410   -2.2650   -1.2790 H   0  0  0  0  0  0  0  0  0  0  0  0
    6.4620    2.6690    2.6080 H   0  0  0  0  0  0  0  0  0  0  0  0
   -1.0940    5.2410    1.1750 H   0  0  0  0  0  0  0  0  0  0  0  0
   -2.8520    5.1420    1.4360 H   0  0  0  0  0  0  0  0  0  0  0  0
   -2.1580    4.6760   -0.1350 H   0  0  0  0  0  0  0  0  0  0  0  0
   -0.8660    3.8020    3.2780 H   0  0  0  0  0  0  0  0  0  0  0  0
   -1.6510    2.2050    3.3320 H   0  0  0  0  0  0  0  0  0  0  0  0
   -2.6380    3.6850    3.3940 H   0  0  0  0  0  0  0  0  0  0  0  0
   -0.4550   -0.6920   -2.9550 H   0  0  0  0  0  0  0  0  0  0  0  0
    1.2000   -1.2300   -2.5810 H   0  0  0  0  0  0  0  0  0  0  0  0
    0.6210   -3.5150   -3.3010 H   0  0  0  0  0  0  0  0  0  0  0  0
   -1.0350   -2.9780   -3.6740 H   0  0  0  0  0  0  0  0  0  0  0  0
    1.5060   -1.9500   -4.9900 H   0  0  0  0  0  0  0  0  0  0  0  0
   -0.1520   -1.4220   -5.3660 H   0  0  0  0  0  0  0  0  0  0  0  0
    0.3490   -3.0960   -5.7080 H   0  0  0  0  0  0  0  0  0  0  0  0
  1  2  1  0  0  0  0
  1  7  1  0  0  0  0
  1  8  1  0  0  0  0
  1  9  1  0  0  0  0
  2  3  1  0  0  0  0
  2  4  1  0  0  0  0
  2 28  1  0  0  0  0
  3  6  1  0  0  0  0
  3 10  1  0  0  0  0
  3 29  1  0  0  0  0
  4  5  1  0  0  0  0
  4 14  2  0  0  0  0
  5  6  1  0  0  0  0
  5 19  1  0  0  0  0
  6 13  2  0  0  0  0
  7 11  1  0  0  0  0
  7 16  2  0  0  0  0
  8 10  1  0  0  0  0
  8 30  1  0  0  0  0
  8 31  1  0  0  0  0
  9 12  1  0  0  0  0
  9 15  2  0  0  0  0
 10 18  1  0  0  0  0
 10 32  1  0  0  0  0
 11 12  1  0  0  0  0
 11 33  1  0  0  0  0
 12 17  2  0  0  0  0
 15 20  1  0  0  0  0
 15 34  1  0  0  0  0
 17 21  1  0  0  0  0
 17 35  1  0  0  0  0
 18 23  1  0  0  0  0
 18 24  1  0  0  0  0
 18 36  1  0  0  0  0
 19 25  1  0  0  0  0
 19 37  1  0  0  0  0
 19 38  1  0  0  0  0
 20 21  2  0  0  0  0
 20 22  1  0  0  0  0
 21 39  1  0  0  0  0
 23 40  1  0  0  0  0
 23 41  1  0  0  0  0
 23 42  1  0  0  0  0
 24 43  1  0  0  0  0
 24 44  1  0  0  0  0
 24 45  1  0  0  0  0
 25 26  1  0  0  0  0
 25 46  1  0  0  0  0
 25 47  1  0  0  0  0
 26 27  1  0  0  0  0
 26 48  1  0  0  0  0
 26 49  1  0  0  0  0
 27 50  1  0  0  0  0
 27 51  1  0  0  0  0
 27 52  1  0  0  0  0
M  CHG  1   8   1
M  END
>  <$CLUSTER>
601

>  <INDEX>
391037

$$$$
InterBioScreen STOCK5S-88271
  MOE2020           3D

 46 48  0  0  0  0  0  0  0  0999 V2000
   -0.9880    0.2410    0.1790 N   0  0  0  0  0  0  0  0  0  0  0  0
   -0.3580    1.4680    0.0690 C   0  0  0  0  0  0  0  0  0  0  0  0
    1.2550   -0.4770    0.0800 C   0  0  0  0  0  0  0  0  0  0  0  0
   -0.1690   -0.8760    0.1880 C   0  0  0  0  0  0  0  0  0  0  0  0
    1.3910    1.2320   -0.0210 S   0  0  0  0  0  0  0  0  0  0  0  0
    2.2510   -1.3680    0.0690 C   0  0  0  0  0  0  0  0  0  0  0  0
   -5.1650   -0.4700   -2.2330 N   0  0  0  0  0  0  0  0  0  0  0  0
   -4.5780   -0.3050   -0.9930 C   0  0  0  0  0  0  0  0  0  0  0  0
   -2.4390    0.0570    0.2780 C   0  0  0  0  0  0  0  0  0  0  0  0
   -3.0800   -0.1260   -1.0910 C   0  0  0  0  0  0  0  0  0  0  0  0
   -6.5760   -3.4490   -5.0200 C   0  0  0  0  0  0  0  0  0  0  0  0
   -1.0440    2.9910    0.0170 S   0  0  0  0  0  0  0  0  0  0  0  0
    3.7190   -1.0970   -0.0340 C   0  0  0  0  0  0  0  0  0  0  0  0
   -0.5390   -2.0440    0.2670 O   0  0  0  0  0  0  0  0  0  0  0  0
   -6.3140   -2.0830   -4.3880 C   0  0  0  0  0  0  0  0  0  0  0  0
   -6.6480   -0.6590   -2.3110 C   0  0  0  0  0  0  0  0  0  0  0  0
   -4.5230   -0.4880   -3.5490 C   0  0  0  0  0  0  0  0  0  0  0  0
   -5.2120   -0.3050    0.0560 O   0  0  0  0  0  0  0  0  0  0  0  0
   -6.9570   -4.3780   -4.2950 O   0  0  0  0  0  0  0  0  0  0  0  0
    4.5490   -1.7980   -0.8760 C   0  0  0  0  0  0  0  0  0  0  0  0
   -6.9710   -1.9790   -3.0070 C   0  0  0  0  0  0  0  0  0  0  0  0
   -4.8100   -1.8060   -4.2740 C   0  0  0  0  0  0  0  0  0  0  0  0
   -6.2700   -3.4760   -6.2760 O   0  5  0  0  0  0  0  0  0  0  0  0
    3.9830   -3.0730   -1.9030 Cl  0  0  0  0  0  0  0  0  0  0  0  0
    4.2320   -0.0620    0.7720 C   0  0  0  0  0  0  0  0  0  0  0  0
    5.9150   -1.4960   -0.9270 C   0  0  0  0  0  0  0  0  0  0  0  0
    5.5950    0.2380    0.7190 C   0  0  0  0  0  0  0  0  0  0  0  0
    6.4360   -0.4760   -0.1300 C   0  0  0  0  0  0  0  0  0  0  0  0
    1.9620   -2.4060    0.1430 H   0  0  0  0  0  0  0  0  0  0  0  0
   -2.6420   -0.8260    0.8840 H   0  0  0  0  0  0  0  0  0  0  0  0
   -2.8740    0.9340    0.7570 H   0  0  0  0  0  0  0  0  0  0  0  0
   -2.6500   -1.0080   -1.5660 H   0  0  0  0  0  0  0  0  0  0  0  0
   -2.8690    0.7540   -1.6990 H   0  0  0  0  0  0  0  0  0  0  0  0
   -6.7570   -1.3320   -5.0420 H   0  0  0  0  0  0  0  0  0  0  0  0
   -7.0640   -0.6710   -1.3030 H   0  0  0  0  0  0  0  0  0  0  0  0
   -7.0870    0.1630   -2.8750 H   0  0  0  0  0  0  0  0  0  0  0  0
   -4.9070    0.3390   -4.1460 H   0  0  0  0  0  0  0  0  0  0  0  0
   -3.4460   -0.3760   -3.4230 H   0  0  0  0  0  0  0  0  0  0  0  0
   -6.6130   -2.8000   -2.3860 H   0  0  0  0  0  0  0  0  0  0  0  0
   -8.0520   -2.0580   -3.1260 H   0  0  0  0  0  0  0  0  0  0  0  0
   -4.3840   -1.7560   -5.2760 H   0  0  0  0  0  0  0  0  0  0  0  0
   -4.3430   -2.6210   -3.7210 H   0  0  0  0  0  0  0  0  0  0  0  0
    3.5770    0.4950    1.4250 H   0  0  0  0  0  0  0  0  0  0  0  0
    6.5660   -2.0530   -1.5840 H   0  0  0  0  0  0  0  0  0  0  0  0
    5.9980    1.0260    1.3380 H   0  0  0  0  0  0  0  0  0  0  0  0
    7.4890   -0.2410   -0.1720 H   0  0  0  0  0  0  0  0  0  0  0  0
  1  2  1  0  0  0  0
  1  4  1  0  0  0  0
  1  9  1  0  0  0  0
  2  5  1  0  0  0  0
  2 12  2  0  0  0  0
  3  4  1  0  0  0  0
  3  5  1  0  0  0  0
  3  6  2  0  0  0  0
  4 14  2  0  0  0  0
  6 13  1  0  0  0  0
  6 29  1  0  0  0  0
  7  8  1  0  0  0  0
  7 16  1  0  0  0  0
  7 17  1  0  0  0  0
  8 10  1  0  0  0  0
  8 18  2  0  0  0  0
  9 10  1  0  0  0  0
  9 30  1  0  0  0  0
  9 31  1  0  0  0  0
 10 32  1  0  0  0  0
 10 33  1  0  0  0  0
 11 15  1  0  0  0  0
 11 19  2  0  0  0  0
 11 23  1  0  0  0  0
 13 20  1  0  0  0  0
 13 25  2  0  0  0  0
 15 21  1  0  0  0  0
 15 22  1  0  0  0  0
 15 34  1  0  0  0  0
 16 21  1  0  0  0  0
 16 35  1  0  0  0  0
 16 36  1  0  0  0  0
 17 22  1  0  0  0  0
 17 37  1  0  0  0  0
 17 38  1  0  0  0  0
 20 24  1  0  0  0  0
 20 26  2  0  0  0  0
 21 39  1  0  0  0  0
 21 40  1  0  0  0  0
 22 41  1  0  0  0  0
 22 42  1  0  0  0  0
 25 27  1  0  0  0  0
 25 43  1  0  0  0  0
 26 28  1  0  0  0  0
 26 44  1  0  0  0  0
 27 28  2  0  0  0  0
 27 45  1  0  0  0  0
 28 46  1  0  0  0  0
M  CHG  1  23  -1
M  END
>  <$CLUSTER>
602

>  <INDEX>
393926

$$$$
InterBioScreen STOCK5S-96574
  MOE2020           3D

 41 43  0  0  0  0  0  0  0  0999 V2000
   -1.1820    1.2540   -3.3000 C   0  0  0  0  0  0  0  0  0  0  0  0
   -1.6710    1.2950   -4.5600 N   0  0  0  0  0  0  0  0  0  0  0  0
   -1.5520    0.1890   -2.2980 C   0  0  0  0  0  0  0  0  0  0  0  0
   -0.3260    2.3260   -3.1400 C   0  0  0  0  0  0  0  0  0  0  0  0
   -0.9820    0.2830   -1.0830 N   0  0  0  0  0  0  0  0  0  0  0  0
    0.9820   -0.2830    1.0830 N   0  0  0  0  0  0  0  0  0  0  0  0
    1.4890   -0.2840    2.3200 C   0  0  0  0  0  0  0  0  0  0  0  0
   -0.3120    3.0340   -4.3680 C   0  0  0  0  0  0  0  0  0  0  0  0
   -1.1540    2.3720   -5.2280 C   0  0  0  0  0  0  0  0  0  0  0  0
    1.2520    0.6880    0.0050 C   0  0  0  0  0  0  0  0  0  0  0  0
    0.0330   -1.3000    0.5920 C   0  0  0  0  0  0  0  0  0  0  0  0
   -1.2520   -0.6880   -0.0050 C   0  0  0  0  0  0  0  0  0  0  0  0
   -0.0330    1.3000   -0.5920 C   0  0  0  0  0  0  0  0  0  0  0  0
   -2.3410   -0.6990   -2.6280 O   0  0  0  0  0  0  0  0  0  0  0  0
    1.2430   -1.1070    3.1950 O   0  0  0  0  0  0  0  0  0  0  0  0
    0.3610    4.1970   -4.8140 C   0  0  0  0  0  0  0  0  0  0  0  0
   -1.3830    2.8060   -6.5560 C   0  0  0  0  0  0  0  0  0  0  0  0
    0.1490    4.6430   -6.1250 C   0  0  0  0  0  0  0  0  0  0  0  0
    2.3430    0.7480    2.5570 O   0  0  0  0  0  0  0  0  0  0  0  0
   -0.7110    3.9560   -6.9790 C   0  0  0  0  0  0  0  0  0  0  0  0
    0.9600    6.0440   -6.6640 Cl  0  0  0  0  0  0  0  0  0  0  0  0
    2.9520    0.8650    3.8290 C   0  0  0  0  0  0  0  0  0  0  0  0
    3.8520    2.0840    3.8410 C   0  0  0  0  0  0  0  0  0  0  0  0
   -2.3220    0.6290   -4.9510 H   0  0  0  0  0  0  0  0  0  0  0  0
    0.2280    2.5770   -2.2480 H   0  0  0  0  0  0  0  0  0  0  0  0
    1.7970    0.1810   -0.7910 H   0  0  0  0  0  0  0  0  0  0  0  0
    1.8650    1.4940    0.4090 H   0  0  0  0  0  0  0  0  0  0  0  0
   -0.2450   -1.9470    1.4240 H   0  0  0  0  0  0  0  0  0  0  0  0
    0.5260   -1.8920   -0.1790 H   0  0  0  0  0  0  0  0  0  0  0  0
   -1.8650   -1.4940   -0.4090 H   0  0  0  0  0  0  0  0  0  0  0  0
   -1.7970   -0.1810    0.7910 H   0  0  0  0  0  0  0  0  0  0  0  0
   -0.5260    1.8920    0.1790 H   0  0  0  0  0  0  0  0  0  0  0  0
    0.2450    1.9470   -1.4240 H   0  0  0  0  0  0  0  0  0  0  0  0
    1.0270    4.7320   -4.1540 H   0  0  0  0  0  0  0  0  0  0  0  0
   -2.0500    2.2700   -7.2150 H   0  0  0  0  0  0  0  0  0  0  0  0
   -0.8610    4.3180   -7.9850 H   0  0  0  0  0  0  0  0  0  0  0  0
    3.5440   -0.0270    4.0330 H   0  0  0  0  0  0  0  0  0  0  0  0
    2.1820    0.9730    4.5930 H   0  0  0  0  0  0  0  0  0  0  0  0
    4.6210    1.9750    3.0770 H   0  0  0  0  0  0  0  0  0  0  0  0
    4.3230    2.1780    4.8200 H   0  0  0  0  0  0  0  0  0  0  0  0
    3.2590    2.9750    3.6360 H   0  0  0  0  0  0  0  0  0  0  0  0
  1  2  1  0  0  0  0
  1  3  1  0  0  0  0
  1  4  2  0  0  0  0
  2  9  1  0  0  0  0
  2 24  1  0  0  0  0
  3  5  1  0  0  0  0
  3 14  2  0  0  0  0
  4  8  1  0  0  0  0
  4 25  1  0  0  0  0
  5 12  1  0  0  0  0
  5 13  1  0  0  0  0
  6  7  1  0  0  0  0
  6 10  1  0  0  0  0
  6 11  1  0  0  0  0
  7 15  2  0  0  0  0
  7 19  1  0  0  0  0
  8  9  2  0  0  0  0
  8 16  1  0  0  0  0
  9 17  1  0  0  0  0
 10 13  1  0  0  0  0
 10 26  1  0  0  0  0
 10 27  1  0  0  0  0
 11 12  1  0  0  0  0
 11 28  1  0  0  0  0
 11 29  1  0  0  0  0
 12 30  1  0  0  0  0
 12 31  1  0  0  0  0
 13 32  1  0  0  0  0
 13 33  1  0  0  0  0
 16 18  2  0  0  0  0
 16 34  1  0  0  0  0
 17 20  2  0  0  0  0
 17 35  1  0  0  0  0
 18 20  1  0  0  0  0
 18 21  1  0  0  0  0
 19 22  1  0  0  0  0
 20 36  1  0  0  0  0
 22 23  1  0  0  0  0
 22 37  1  0  0  0  0
 22 38  1  0  0  0  0
 23 39  1  0  0  0  0
 23 40  1  0  0  0  0
 23 41  1  0  0  0  0
M  END
>  <$CLUSTER>
603

>  <INDEX>
399645

$$$$
Chembridge 5284189
  MOE2020           3D

 47 50  0  0  1  0  0  0  0  0999 V2000
   -1.6870    0.0350    1.2950 C   0  0  0  0  0  0  0  0  0  0  0  0
   -0.0040   -1.0190   -0.2300 C   0  0  0  0  0  0  0  0  0  0  0  0
   -1.0180   -1.3660   -1.0420 C   0  0  0  0  0  0  0  0  0  0  0  0
   -2.6180   -0.3710    0.4140 C   0  0  0  0  0  0  0  0  0  0  0  0
   -0.2110   -0.1530    0.9940 C   0  0  3  0  0  0  0  0  0  0  0  0
   -2.3310   -0.9860   -0.7890 O   0  0  0  0  0  0  0  0  0  0  0  0
    1.3520   -1.5680   -0.4900 C   0  0  0  0  0  0  0  0  0  0  0  0
    2.4510    5.0320    0.5270 C   0  0  0  0  0  0  0  0  0  0  0  0
   -2.0870    0.6230    2.5300 C   0  0  0  0  0  0  0  0  0  0  0  0
   -0.8580   -2.1670   -2.3040 C   0  0  0  0  0  0  0  0  0  0  0  0
    0.5730   -2.0820   -2.8410 C   0  0  3  0  0  0  0  0  0  0  0  0
    1.5700   -2.4140   -1.7300 C   0  0  0  0  0  0  0  0  0  0  0  0
   -2.4240    1.0860    3.5430 N   0  0  0  0  0  0  0  0  0  0  0  0
    0.4810    1.2070    0.8430 C   0  0  0  0  0  0  0  0  0  0  0  0
    1.7530    3.7090    0.6150 C   0  0  0  0  0  0  0  0  0  0  0  0
    2.2570   -1.4080    0.3280 O   0  0  0  0  0  0  0  0  0  0  0  0
   -3.9740   -0.2020    0.6500 N   0  0  0  0  0  0  0  0  0  0  0  0
    0.7640   -3.0040   -4.0430 C   0  0  0  0  0  0  0  0  0  0  0  0
    1.4590    1.6060    1.7710 C   0  0  0  0  0  0  0  0  0  0  0  0
    0.1530    2.0930   -0.2030 C   0  0  0  0  0  0  0  0  0  0  0  0
    2.0890    2.8470    1.6560 C   0  0  0  0  0  0  0  0  0  0  0  0
    0.7860    3.3320   -0.3140 C   0  0  0  0  0  0  0  0  0  0  0  0
    3.7970    4.8630    0.4090 F   0  0  0  0  0  0  0  0  0  0  0  0
    2.2460    5.7630    1.6570 F   0  0  0  0  0  0  0  0  0  0  0  0
    2.0680    5.8200   -0.5170 F   0  0  0  0  0  0  0  0  0  0  0  0
    1.1140   -2.4470   -5.2860 C   0  0  0  0  0  0  0  0  0  0  0  0
    0.6020   -4.3930   -3.9580 C   0  0  0  0  0  0  0  0  0  0  0  0
    0.7860   -5.2040   -5.0780 C   0  0  0  0  0  0  0  0  0  0  0  0
    1.2980   -3.2590   -6.4050 C   0  0  0  0  0  0  0  0  0  0  0  0
    1.1320   -4.6370   -6.3010 C   0  0  0  0  0  0  0  0  0  0  0  0
    0.2450   -0.6740    1.8360 H   0  0  0  0  0  0  0  0  0  0  0  0
   -1.5440   -1.7810   -3.0580 H   0  0  0  0  0  0  0  0  0  0  0  0
   -1.0970   -3.2100   -2.0950 H   0  0  0  0  0  0  0  0  0  0  0  0
    0.7570   -1.0620   -3.1790 H   0  0  0  0  0  0  0  0  0  0  0  0
    1.4590   -3.4650   -1.4620 H   0  0  0  0  0  0  0  0  0  0  0  0
    2.5800   -2.2390   -2.1010 H   0  0  0  0  0  0  0  0  0  0  0  0
   -4.2870    0.2370    1.5040 H   0  0  0  0  0  0  0  0  0  0  0  0
   -4.6490   -0.5180   -0.0320 H   0  0  0  0  0  0  0  0  0  0  0  0
    1.7260    0.9450    2.5820 H   0  0  0  0  0  0  0  0  0  0  0  0
   -0.5970    1.8100   -0.9270 H   0  0  0  0  0  0  0  0  0  0  0  0
    2.8390    3.1390    2.3760 H   0  0  0  0  0  0  0  0  0  0  0  0
    0.5260    4.0000   -1.1220 H   0  0  0  0  0  0  0  0  0  0  0  0
    1.2420   -1.3780   -5.3750 H   0  0  0  0  0  0  0  0  0  0  0  0
    0.3310   -4.8410   -3.0140 H   0  0  0  0  0  0  0  0  0  0  0  0
    0.6600   -6.2730   -4.9960 H   0  0  0  0  0  0  0  0  0  0  0  0
    1.5690   -2.8180   -7.3530 H   0  0  0  0  0  0  0  0  0  0  0  0
    1.2720   -5.2650   -7.1680 H   0  0  0  0  0  0  0  0  0  0  0  0
  1  4  2  0  0  0  0
  1  5  1  0  0  0  0
  1  9  1  0  0  0  0
  2  3  2  0  0  0  0
  2  5  1  0  0  0  0
  2  7  1  0  0  0  0
  3  6  1  0  0  0  0
  3 10  1  0  0  0  0
  4  6  1  0  0  0  0
  4 17  1  0  0  0  0
  5 14  1  0  0  0  0
  5 31  1  0  0  0  0
  7 12  1  0  0  0  0
  7 16  2  0  0  0  0
  8 15  1  0  0  0  0
  8 23  1  0  0  0  0
  8 24  1  0  0  0  0
  8 25  1  0  0  0  0
  9 13  3  0  0  0  0
 10 11  1  0  0  0  0
 10 32  1  0  0  0  0
 10 33  1  0  0  0  0
 11 12  1  0  0  0  0
 11 18  1  0  0  0  0
 11 34  1  0  0  0  0
 12 35  1  0  0  0  0
 12 36  1  0  0  0  0
 14 19  2  0  0  0  0
 14 20  1  0  0  0  0
 15 21  2  0  0  0  0
 15 22  1  0  0  0  0
 17 37  1  0  0  0  0
 17 38  1  0  0  0  0
 18 26  1  0  0  0  0
 18 27  2  0  0  0  0
 19 21  1  0  0  0  0
 19 39  1  0  0  0  0
 20 22  2  0  0  0  0
 20 40  1  0  0  0  0
 21 41  1  0  0  0  0
 22 42  1  0  0  0  0
 26 29  2  0  0  0  0
 26 43  1  0  0  0  0
 27 28  1  0  0  0  0
 27 44  1  0  0  0  0
 28 30  2  0  0  0  0
 28 45  1  0  0  0  0
 29 30  1  0  0  0  0
 29 46  1  0  0  0  0
 30 47  1  0  0  0  0
M  END
>  <$CLUSTER>
604

>  <INDEX>
41155

$$$$
InnovaPharm STT-00186867
  MOE2020           3D

 38 40  0  0  0  0  0  0  0  0999 V2000
   -2.4690    0.3150   -1.1530 N   0  0  0  0  0  0  0  0  0  0  0  0
   -1.3540    0.0000   -0.4580 C   0  0  0  0  0  0  0  0  0  0  0  0
   -3.4900   -1.6150   -0.2300 C   0  0  0  0  0  0  0  0  0  0  0  0
   -3.5260   -0.5060   -1.0250 C   0  0  0  0  0  0  0  0  0  0  0  0
   -2.3780   -1.9130    0.4520 N   0  0  0  0  0  0  0  0  0  0  0  0
   -1.2970   -1.0930    0.3350 N   0  0  0  0  0  0  0  0  0  0  0  0
   -0.2590    0.8700   -0.6040 N   0  0  0  0  0  0  0  0  0  0  0  0
   -4.6660   -2.5350   -0.0560 C   0  0  0  0  0  0  0  0  0  0  0  0
    1.0410    0.8880   -0.0640 C   0  0  0  0  0  0  0  0  0  0  0  0
   -4.6440   -0.1640   -1.7260 O   0  0  0  0  0  0  0  0  0  0  0  0
   -5.6200   -2.0310    1.0150 C   0  0  0  0  0  0  0  0  0  0  0  0
    3.6800    1.0640    0.9330 C   0  0  0  0  0  0  0  0  0  0  0  0
    1.8990    1.9400   -0.4390 C   0  0  0  0  0  0  0  0  0  0  0  0
    1.5440   -0.0720    0.8240 C   0  0  0  0  0  0  0  0  0  0  0  0
    2.8510    0.0160    1.3180 C   0  0  0  0  0  0  0  0  0  0  0  0
    3.2040    2.0290    0.0530 C   0  0  0  0  0  0  0  0  0  0  0  0
    5.0730    1.1490    1.4630 C   0  0  0  0  0  0  0  0  0  0  0  0
   -6.6680   -1.1630    0.6810 C   0  0  0  0  0  0  0  0  0  0  0  0
   -5.4480   -2.4060    2.3520 C   0  0  0  0  0  0  0  0  0  0  0  0
   -6.3130   -1.9280    3.3370 C   0  0  0  0  0  0  0  0  0  0  0  0
   -7.5310   -0.6860    1.6670 C   0  0  0  0  0  0  0  0  0  0  0  0
   -7.3540   -1.0700    2.9940 C   0  0  0  0  0  0  0  0  0  0  0  0
   -0.4440    1.6440   -1.2260 H   0  0  0  0  0  0  0  0  0  0  0  0
   -4.3030   -3.5220    0.2300 H   0  0  0  0  0  0  0  0  0  0  0  0
   -5.2020   -2.6060   -1.0020 H   0  0  0  0  0  0  0  0  0  0  0  0
   -5.3900   -0.7580   -1.6150 H   0  0  0  0  0  0  0  0  0  0  0  0
    1.5400    2.6950   -1.1230 H   0  0  0  0  0  0  0  0  0  0  0  0
    0.9130   -0.8930    1.1320 H   0  0  0  0  0  0  0  0  0  0  0  0
    3.2180   -0.7350    2.0020 H   0  0  0  0  0  0  0  0  0  0  0  0
    3.8420    2.8460   -0.2500 H   0  0  0  0  0  0  0  0  0  0  0  0
    5.2590    0.3090    2.1320 H   0  0  0  0  0  0  0  0  0  0  0  0
    5.1970    2.0840    2.0100 H   0  0  0  0  0  0  0  0  0  0  0  0
    5.7800    1.1160    0.6340 H   0  0  0  0  0  0  0  0  0  0  0  0
   -6.8080   -0.8620   -0.3470 H   0  0  0  0  0  0  0  0  0  0  0  0
   -4.6400   -3.0700    2.6230 H   0  0  0  0  0  0  0  0  0  0  0  0
   -6.1750   -2.2240    4.3660 H   0  0  0  0  0  0  0  0  0  0  0  0
   -8.3370   -0.0180    1.4010 H   0  0  0  0  0  0  0  0  0  0  0  0
   -8.0240   -0.7020    3.7570 H   0  0  0  0  0  0  0  0  0  0  0  0
  1  2  1  0  0  0  0
  1  4  2  0  0  0  0
  2  6  2  0  0  0  0
  2  7  1  0  0  0  0
  3  4  1  0  0  0  0
  3  5  2  0  0  0  0
  3  8  1  0  0  0  0
  4 10  1  0  0  0  0
  5  6  1  0  0  0  0
  7  9  1  0  0  0  0
  7 23  1  0  0  0  0
  8 11  1  0  0  0  0
  8 24  1  0  0  0  0
  8 25  1  0  0  0  0
  9 13  1  0  0  0  0
  9 14  2  0  0  0  0
 10 26  1  0  0  0  0
 11 18  1  0  0  0  0
 11 19  2  0  0  0  0
 12 15  2  0  0  0  0
 12 16  1  0  0  0  0
 12 17  1  0  0  0  0
 13 16  2  0  0  0  0
 13 27  1  0  0  0  0
 14 15  1  0  0  0  0
 14 28  1  0  0  0  0
 15 29  1  0  0  0  0
 16 30  1  0  0  0  0
 17 31  1  0  0  0  0
 17 32  1  0  0  0  0
 17 33  1  0  0  0  0
 18 21  2  0  0  0  0
 18 34  1  0  0  0  0
 19 20  1  0  0  0  0
 19 35  1  0  0  0  0
 20 22  2  0  0  0  0
 20 36  1  0  0  0  0
 21 22  1  0  0  0  0
 21 37  1  0  0  0  0
 22 38  1  0  0  0  0
M  END
>  <$CLUSTER>
605

>  <INDEX>
400122

$$$$
Life Chemicals F0577-0037
  MOE2020           3D

 53 56  0  0  1  0  0  0  0  0999 V2000
    0.0590    0.8830    0.7700 C   0  0  0  0  0  0  0  0  0  0  0  0
    0.2380    0.5110   -0.5240 C   0  0  0  0  0  0  0  0  0  0  0  0
   -0.4050    0.0110    1.7400 N   0  0  0  0  0  0  0  0  0  0  0  0
    0.0100   -0.9090   -0.9040 C   0  0  0  0  0  0  0  0  0  0  0  0
   -0.4490   -1.7020    0.1250 N   0  0  0  0  0  0  0  0  0  0  0  0
    1.1640    2.8150   -1.0330 C   0  0  0  0  0  0  0  0  0  0  0  0
    0.6970    1.4840   -1.6090 C   0  0  3  0  0  0  0  0  0  0  0  0
    0.3790    2.1940    1.1080 N   0  0  0  0  0  0  0  0  0  0  0  0
    0.9550    3.1190    0.2620 C   0  0  0  0  0  0  0  0  0  0  0  0
   -0.6350   -1.2070    1.3870 C   0  0  0  0  0  0  0  0  0  0  0  0
    1.9140    3.7660   -1.9010 C   0  0  0  0  0  0  0  0  0  0  0  0
   -0.4530    1.7340   -2.5980 C   0  0  0  0  0  0  0  0  0  0  0  0
    0.2270   -1.3290   -2.0360 O   0  0  0  0  0  0  0  0  0  0  0  0
   -2.5060    2.1430   -4.4910 C   0  0  0  0  0  0  0  0  0  0  0  0
   -1.2060   -2.4130    2.4960 S   0  0  0  0  0  0  0  0  0  0  0  0
    2.1940    3.4710   -3.0610 O   0  0  0  0  0  0  0  0  0  0  0  0
   -0.2830    1.3640   -3.9590 C   0  0  0  0  0  0  0  0  0  0  0  0
   -1.6750    2.3040   -2.2290 C   0  0  0  0  0  0  0  0  0  0  0  0
   -1.3030    1.5700   -4.8900 C   0  0  0  0  0  0  0  0  0  0  0  0
   -2.6930    2.5090   -3.1610 C   0  0  0  0  0  0  0  0  0  0  0  0
    1.3300    4.4440    0.8720 C   0  0  0  0  0  0  0  0  0  0  0  0
   -3.6110    2.3580   -5.5350 C   0  0  0  0  0  0  0  0  0  0  0  0
    2.3990    5.0690   -1.3040 C   0  0  0  0  0  0  0  0  0  0  0  0
    1.4920    5.5350   -0.1790 C   0  0  0  0  0  0  0  0  0  0  0  0
   -1.3480   -1.4420    4.0120 C   0  0  0  0  0  0  0  0  0  0  0  0
   -3.9460    3.8430   -5.7030 C   0  0  0  0  0  0  0  0  0  0  0  0
   -4.8680    1.5500   -5.1990 C   0  0  0  0  0  0  0  0  0  0  0  0
   -2.5000   -0.4430    3.9660 C   0  0  0  0  0  0  0  0  0  0  0  0
   -0.6540   -2.6740   -0.0570 H   0  0  0  0  0  0  0  0  0  0  0  0
    1.5460    1.0270   -2.1180 H   0  0  0  0  0  0  0  0  0  0  0  0
    0.1730    2.4930    2.0500 H   0  0  0  0  0  0  0  0  0  0  0  0
    0.6470    0.9180   -4.2780 H   0  0  0  0  0  0  0  0  0  0  0  0
   -1.8350    2.5920   -1.2000 H   0  0  0  0  0  0  0  0  0  0  0  0
   -1.1580    1.2840   -5.9210 H   0  0  0  0  0  0  0  0  0  0  0  0
   -3.6270    2.9520   -2.8500 H   0  0  0  0  0  0  0  0  0  0  0  0
    2.2720    4.3300    1.4080 H   0  0  0  0  0  0  0  0  0  0  0  0
    0.5490    4.7430    1.5710 H   0  0  0  0  0  0  0  0  0  0  0  0
   -3.2250    1.9940   -6.4870 H   0  0  0  0  0  0  0  0  0  0  0  0
    2.4170    5.8310   -2.0830 H   0  0  0  0  0  0  0  0  0  0  0  0
    3.4060    4.9260   -0.9120 H   0  0  0  0  0  0  0  0  0  0  0  0
    1.9270    6.4190    0.2880 H   0  0  0  0  0  0  0  0  0  0  0  0
    0.5130    5.7850   -0.5890 H   0  0  0  0  0  0  0  0  0  0  0  0
   -0.4180   -0.8950    4.1640 H   0  0  0  0  0  0  0  0  0  0  0  0
   -1.5100   -2.1220    4.8480 H   0  0  0  0  0  0  0  0  0  0  0  0
   -4.3350    4.2360   -4.7640 H   0  0  0  0  0  0  0  0  0  0  0  0
   -4.6970    3.9600   -6.4850 H   0  0  0  0  0  0  0  0  0  0  0  0
   -3.0450    4.3900   -5.9800 H   0  0  0  0  0  0  0  0  0  0  0  0
   -5.2770    1.8930   -4.2490 H   0  0  0  0  0  0  0  0  0  0  0  0
   -4.6110    0.4930   -5.1240 H   0  0  0  0  0  0  0  0  0  0  0  0
   -5.6100    1.6890   -5.9850 H   0  0  0  0  0  0  0  0  0  0  0  0
   -2.3510    0.2450    3.1340 H   0  0  0  0  0  0  0  0  0  0  0  0
   -2.5320    0.1180    4.9000 H   0  0  0  0  0  0  0  0  0  0  0  0
   -3.4400   -0.9780    3.8320 H   0  0  0  0  0  0  0  0  0  0  0  0
  1  2  2  0  0  0  0
  1  3  1  0  0  0  0
  1  8  1  0  0  0  0
  2  4  1  0  0  0  0
  2  7  1  0  0  0  0
  3 10  2  0  0  0  0
  4  5  1  0  0  0  0
  4 13  2  0  0  0  0
  5 10  1  0  0  0  0
  5 29  1  0  0  0  0
  6  7  1  0  0  0  0
  6  9  2  0  0  0  0
  6 11  1  0  0  0  0
  7 12  1  0  0  0  0
  7 30  1  0  0  0  0
  8  9  1  0  0  0  0
  8 31  1  0  0  0  0
  9 21  1  0  0  0  0
 10 15  1  0  0  0  0
 11 16  2  0  0  0  0
 11 23  1  0  0  0  0
 12 17  2  0  0  0  0
 12 18  1  0  0  0  0
 14 19  2  0  0  0  0
 14 20  1  0  0  0  0
 14 22  1  0  0  0  0
 15 25  1  0  0  0  0
 17 19  1  0  0  0  0
 17 32  1  0  0  0  0
 18 20  2  0  0  0  0
 18 33  1  0  0  0  0
 19 34  1  0  0  0  0
 20 35  1  0  0  0  0
 21 24  1  0  0  0  0
 21 36  1  0  0  0  0
 21 37  1  0  0  0  0
 22 26  1  0  0  0  0
 22 27  1  0  0  0  0
 22 38  1  0  0  0  0
 23 24  1  0  0  0  0
 23 39  1  0  0  0  0
 23 40  1  0  0  0  0
 24 41  1  0  0  0  0
 24 42  1  0  0  0  0
 25 28  1  0  0  0  0
 25 43  1  0  0  0  0
 25 44  1  0  0  0  0
 26 45  1  0  0  0  0
 26 46  1  0  0  0  0
 26 47  1  0  0  0  0
 27 48  1  0  0  0  0
 27 49  1  0  0  0  0
 27 50  1  0  0  0  0
 28 51  1  0  0  0  0
 28 52  1  0  0  0  0
 28 53  1  0  0  0  0
M  END
>  <$CLUSTER>
606

>  <INDEX>
274978

$$$$
InnovaPharm STT-00192300
  MOE2020           3D

 49 51  0  0  1  0  0  0  0  0999 V2000
    1.3320    0.1700    0.5180 C   0  0  0  0  0  0  0  0  0  0  0  0
    1.8770   -0.8750    1.3020 C   0  0  0  0  0  0  0  0  0  0  0  0
    2.2140    1.1060   -0.0530 C   0  0  0  0  0  0  0  0  0  0  0  0
   -0.1260    0.2720    0.2990 C   0  0  0  0  0  0  0  0  0  0  0  0
    3.5750    0.9560    0.1690 C   0  0  0  0  0  0  0  0  0  0  0  0
    4.1180   -0.0380    0.9010 N   0  0  0  0  0  0  0  0  0  0  0  0
   -0.7880   -0.4920   -0.6780 C   0  0  0  0  0  0  0  0  0  0  0  0
    3.2700   -0.9420    1.4460 C   0  0  0  0  0  0  0  0  0  0  0  0
   -2.1830   -0.4160   -0.8180 C   0  0  0  0  0  0  0  0  0  0  0  0
    1.7600    2.2000   -0.8590 C   0  0  0  0  0  0  0  0  0  0  0  0
    1.3920    3.0850   -1.5130 N   0  0  0  0  0  0  0  0  0  0  0  0
    0.9990   -1.9350    1.9240 C   0  0  0  0  0  0  0  0  0  0  0  0
   -0.8910    1.1560    1.0780 C   0  0  0  0  0  0  0  0  0  0  0  0
    1.6940   -2.8070    2.9500 N   0  3  3  0  0  0  0  0  0  0  0  0
    3.9160   -2.0120    2.2850 C   0  0  0  0  0  0  0  0  0  0  0  0
   -2.9320    0.4880   -0.0520 C   0  0  0  0  0  0  0  0  0  0  0  0
   -2.2740    1.2710    0.8990 C   0  0  0  0  0  0  0  0  0  0  0  0
    4.4660    1.8790   -0.3910 N   0  0  0  0  0  0  0  0  0  0  0  0
    3.0460   -3.2480    2.4570 C   0  0  0  0  0  0  0  0  0  0  0  0
   -0.0490   -1.3680   -1.4370 O   0  0  0  0  0  0  0  0  0  0  0  0
   -2.8260   -1.1960   -1.7480 O   0  0  0  0  0  0  0  0  0  0  0  0
   -4.2790    0.5180   -0.3030 O   0  0  0  0  0  0  0  0  0  0  0  0
    0.8360   -3.9620    3.3810 C   0  0  0  0  0  0  0  0  0  0  0  0
   -3.1460   -2.4700   -1.1870 C   0  0  0  0  0  0  0  0  0  0  0  0
    0.0820   -0.9040   -2.7810 C   0  0  0  0  0  0  0  0  0  0  0  0
   -5.0590    1.4440    0.4440 C   0  0  0  0  0  0  0  0  0  0  0  0
    0.6270   -2.5790    1.1270 H   0  0  0  0  0  0  0  0  0  0  0  0
    0.1600   -1.4380    2.4120 H   0  0  0  0  0  0  0  0  0  0  0  0
   -0.4020    1.7580    1.8290 H   0  0  0  0  0  0  0  0  0  0  0  0
    1.8460   -2.2470    3.7770 H   0  0  0  0  0  0  0  0  0  0  0  0
    4.1280   -1.5980    3.2710 H   0  0  0  0  0  0  0  0  0  0  0  0
    4.8500   -2.3100    1.8080 H   0  0  0  0  0  0  0  0  0  0  0  0
   -2.8360    1.9700    1.5000 H   0  0  0  0  0  0  0  0  0  0  0  0
    5.4590    1.7790   -0.2370 H   0  0  0  0  0  0  0  0  0  0  0  0
    4.1160    2.6450   -0.9490 H   0  0  0  0  0  0  0  0  0  0  0  0
    2.9410   -3.7610    1.5010 H   0  0  0  0  0  0  0  0  0  0  0  0
    3.5020   -3.9220    3.1830 H   0  0  0  0  0  0  0  0  0  0  0  0
    0.6370   -4.6070    2.5250 H   0  0  0  0  0  0  0  0  0  0  0  0
   -0.1060   -3.5860    3.7790 H   0  0  0  0  0  0  0  0  0  0  0  0
    1.3540   -4.5320    4.1520 H   0  0  0  0  0  0  0  0  0  0  0  0
   -3.6550   -3.0780   -1.9340 H   0  0  0  0  0  0  0  0  0  0  0  0
   -3.7980   -2.3340   -0.3240 H   0  0  0  0  0  0  0  0  0  0  0  0
   -2.2290   -2.9700   -0.8750 H   0  0  0  0  0  0  0  0  0  0  0  0
    0.6710   -1.6180   -3.3560 H   0  0  0  0  0  0  0  0  0  0  0  0
    0.5810    0.0650   -2.7840 H   0  0  0  0  0  0  0  0  0  0  0  0
   -0.9070   -0.8050   -3.2290 H   0  0  0  0  0  0  0  0  0  0  0  0
   -6.1040    1.3620    0.1460 H   0  0  0  0  0  0  0  0  0  0  0  0
   -4.7040    2.4570    0.2510 H   0  0  0  0  0  0  0  0  0  0  0  0
   -4.9660    1.2230    1.5070 H   0  0  0  0  0  0  0  0  0  0  0  0
  1  2  1  0  0  0  0
  1  3  2  0  0  0  0
  1  4  1  0  0  0  0
  2  8  2  0  0  0  0
  2 12  1  0  0  0  0
  3  5  1  0  0  0  0
  3 10  1  0  0  0  0
  4  7  2  0  0  0  0
  4 13  1  0  0  0  0
  5  6  2  0  0  0  0
  5 18  1  0  0  0  0
  6  8  1  0  0  0  0
  7  9  1  0  0  0  0
  7 20  1  0  0  0  0
  8 15  1  0  0  0  0
  9 16  2  0  0  0  0
  9 21  1  0  0  0  0
 10 11  3  0  0  0  0
 12 14  1  0  0  0  0
 12 27  1  0  0  0  0
 12 28  1  0  0  0  0
 13 17  2  0  0  0  0
 13 29  1  0  0  0  0
 14 19  1  0  0  0  0
 14 23  1  0  0  0  0
 14 30  1  0  0  0  0
 15 19  1  0  0  0  0
 15 31  1  0  0  0  0
 15 32  1  0  0  0  0
 16 17  1  0  0  0  0
 16 22  1  0  0  0  0
 17 33  1  0  0  0  0
 18 34  1  0  0  0  0
 18 35  1  0  0  0  0
 19 36  1  0  0  0  0
 19 37  1  0  0  0  0
 20 25  1  0  0  0  0
 21 24  1  0  0  0  0
 22 26  1  0  0  0  0
 23 38  1  0  0  0  0
 23 39  1  0  0  0  0
 23 40  1  0  0  0  0
 24 41  1  0  0  0  0
 24 42  1  0  0  0  0
 24 43  1  0  0  0  0
 25 44  1  0  0  0  0
 25 45  1  0  0  0  0
 25 46  1  0  0  0  0
 26 47  1  0  0  0  0
 26 48  1  0  0  0  0
 26 49  1  0  0  0  0
M  CHG  1  14   1
M  END
>  <$CLUSTER>
607

>  <INDEX>
401219

$$$$
Chemical Block A3981/0169586
  MOE2020           3D

 44 48  0  0  1  0  0  0  0  0999 V2000
    2.1220    1.0300    0.8820 C   0  0  3  0  0  0  0  0  0  0  0  0
    0.7740    0.3580    0.6090 C   0  0  0  0  0  0  0  0  0  0  0  0
    0.3110    0.1990   -0.6410 C   0  0  0  0  0  0  0  0  0  0  0  0
    3.1010    0.0630    1.5810 C   0  0  0  0  0  0  0  0  0  0  0  0
    2.7870    1.4500   -0.4180 C   0  0  0  0  0  0  0  0  0  0  0  0
   -0.0320   -0.1240    1.7540 C   0  0  0  0  0  0  0  0  0  0  0  0
    3.3720    0.7730    2.8410 N   0  0  0  0  0  0  0  0  0  0  0  0
    2.2190    1.2330   -1.6080 C   0  0  0  0  0  0  0  0  0  0  0  0
    1.0000    0.6200   -1.7710 O   0  0  0  0  0  0  0  0  0  0  0  0
    1.9510    2.3150    1.7200 C   0  0  0  0  0  0  0  0  0  0  0  0
    2.7350    2.0190    2.9250 C   0  0  0  0  0  0  0  0  0  0  0  0
   -0.9730   -0.4410   -0.9050 C   0  0  0  0  0  0  0  0  0  0  0  0
   -1.2430   -0.7270    1.4880 O   0  0  0  0  0  0  0  0  0  0  0  0
   -1.7150   -0.8870    0.1850 C   0  0  0  0  0  0  0  0  0  0  0  0
    4.0590    2.0960   -0.3340 C   0  0  0  0  0  0  0  0  0  0  0  0
    5.0950    2.6230   -0.2700 N   0  0  0  0  0  0  0  0  0  0  0  0
    3.4490   -0.9750    1.2610 O   0  0  0  0  0  0  0  0  0  0  0  0
    0.3420   -0.0050    2.9160 O   0  0  0  0  0  0  0  0  0  0  0  0
    2.8230    1.6170   -2.7950 N   0  0  0  0  0  0  0  0  0  0  0  0
    4.2280    0.2230    3.8740 C   0  0  0  0  0  0  0  0  0  0  0  0
    1.2550    3.4040    1.6060 C   0  0  0  0  0  0  0  0  0  0  0  0
   -1.4950   -0.6290   -2.1900 C   0  0  0  0  0  0  0  0  0  0  0  0
    2.7800    2.9530    3.9480 C   0  0  0  0  0  0  0  0  0  0  0  0
   -2.9520   -1.5100    0.0240 C   0  0  0  0  0  0  0  0  0  0  0  0
    3.4290   -0.4850    4.9570 C   0  0  0  0  0  0  0  0  0  0  0  0
    1.2920    4.3560    2.6270 C   0  0  0  0  0  0  0  0  0  0  0  0
   -2.7350   -1.2520   -2.3660 C   0  0  0  0  0  0  0  0  0  0  0  0
    2.0480    4.1310    3.7900 C   0  0  0  0  0  0  0  0  0  0  0  0
   -3.4620   -1.6920   -1.2600 C   0  0  0  0  0  0  0  0  0  0  0  0
    3.7220    2.0770   -2.7780 H   0  0  0  0  0  0  0  0  0  0  0  0
    2.3640    1.4370   -3.6770 H   0  0  0  0  0  0  0  0  0  0  0  0
    4.7960    1.0340    4.3290 H   0  0  0  0  0  0  0  0  0  0  0  0
    4.9150   -0.4910    3.4190 H   0  0  0  0  0  0  0  0  0  0  0  0
    0.6510    3.5730    0.7270 H   0  0  0  0  0  0  0  0  0  0  0  0
   -0.9370   -0.2910   -3.0510 H   0  0  0  0  0  0  0  0  0  0  0  0
    3.3630    2.7750    4.8390 H   0  0  0  0  0  0  0  0  0  0  0  0
   -3.5090   -1.8480    0.8850 H   0  0  0  0  0  0  0  0  0  0  0  0
    2.7390    0.2210    5.4190 H   0  0  0  0  0  0  0  0  0  0  0  0
    4.1090   -0.8760    5.7140 H   0  0  0  0  0  0  0  0  0  0  0  0
    2.8660   -1.3070    4.5150 H   0  0  0  0  0  0  0  0  0  0  0  0
    0.7340    5.2750    2.5220 H   0  0  0  0  0  0  0  0  0  0  0  0
   -3.1310   -1.3930   -3.3610 H   0  0  0  0  0  0  0  0  0  0  0  0
    2.0630    4.8780    4.5700 H   0  0  0  0  0  0  0  0  0  0  0  0
   -4.4190   -2.1730   -1.3990 H   0  0  0  0  0  0  0  0  0  0  0  0
  1  2  1  0  0  0  0
  1  4  1  0  0  0  0
  1  5  1  0  0  0  0
  1 10  1  0  0  0  0
  2  3  2  0  0  0  0
  2  6  1  0  0  0  0
  3  9  1  0  0  0  0
  3 12  1  0  0  0  0
  4  7  1  0  0  0  0
  4 17  2  0  0  0  0
  5  8  2  0  0  0  0
  5 15  1  0  0  0  0
  6 13  1  0  0  0  0
  6 18  2  0  0  0  0
  7 11  1  0  0  0  0
  7 20  1  0  0  0  0
  8  9  1  0  0  0  0
  8 19  1  0  0  0  0
 10 11  2  0  0  0  0
 10 21  1  0  0  0  0
 11 23  1  0  0  0  0
 12 14  2  0  0  0  0
 12 22  1  0  0  0  0
 13 14  1  0  0  0  0
 14 24  1  0  0  0  0
 15 16  3  0  0  0  0
 19 30  1  0  0  0  0
 19 31  1  0  0  0  0
 20 25  1  0  0  0  0
 20 32  1  0  0  0  0
 20 33  1  0  0  0  0
 21 26  2  0  0  0  0
 21 34  1  0  0  0  0
 22 27  2  0  0  0  0
 22 35  1  0  0  0  0
 23 28  2  0  0  0  0
 23 36  1  0  0  0  0
 24 29  2  0  0  0  0
 24 37  1  0  0  0  0
 25 38  1  0  0  0  0
 25 39  1  0  0  0  0
 25 40  1  0  0  0  0
 26 28  1  0  0  0  0
 26 41  1  0  0  0  0
 27 29  1  0  0  0  0
 27 42  1  0  0  0  0
 28 43  1  0  0  0  0
 29 44  1  0  0  0  0
M  END
>  <$CLUSTER>
608

>  <INDEX>
123746

$$$$
InnovaPharm STT-00194632
  MOE2020           3D

 46 46  0  0  0  0  0  0  0  0999 V2000
    0.8880    3.0620   -2.5530 S   0  0  0  0  0  0  0  0  0  0  0  0
    0.7680    1.5620   -1.6120 C   0  0  0  0  0  0  0  0  0  0  0  0
   -0.4390    0.3220    0.1090 C   0  0  0  0  0  0  0  0  0  0  0  0
   -0.2470    1.4860   -0.6600 C   0  0  0  0  0  0  0  0  0  0  0  0
    0.4230   -0.7780   -0.1020 C   0  0  0  0  0  0  0  0  0  0  0  0
    1.6100    0.4750   -1.8130 C   0  0  0  0  0  0  0  0  0  0  0  0
    1.4400   -0.6890   -1.0630 C   0  0  0  0  0  0  0  0  0  0  0  0
   -0.2300    3.9260   -2.2170 O   0  0  0  0  0  0  0  0  0  0  0  0
    1.1370    2.7260   -3.9430 O   0  0  0  0  0  0  0  0  0  0  0  0
    2.2610    3.7920   -1.9360 N   0  0  0  0  0  0  0  0  0  0  0  0
   -1.5600    0.2750    1.1420 C   0  0  0  0  0  0  0  0  0  0  0  0
    0.1960   -1.8890    0.6720 O   0  0  0  0  0  0  0  0  0  0  0  0
    2.2760    4.2460   -0.5560 C   0  0  0  0  0  0  0  0  0  0  0  0
    2.7380    0.4710   -2.8450 C   0  0  0  0  0  0  0  0  0  0  0  0
    3.9690    5.9370   -1.0670 O   0  0  0  0  0  0  0  0  0  0  0  0
    3.6390    4.8410   -0.2070 C   0  0  0  0  0  0  0  0  0  0  0  0
   -1.3590    1.3250    2.2390 C   0  0  0  0  0  0  0  0  0  0  0  0
   -2.9360    0.4290    0.4860 C   0  0  0  0  0  0  0  0  0  0  0  0
    1.0470   -3.0130    0.4810 C   0  0  0  0  0  0  0  0  0  0  0  0
    5.2070    6.5020   -0.7750 C   0  0  0  0  0  0  0  0  0  0  0  0
    0.6870   -4.1350    1.3810 C   0  0  0  0  0  0  0  0  0  0  0  0
   -0.8980    2.3350   -0.5090 H   0  0  0  0  0  0  0  0  0  0  0  0
    2.0980   -1.5300   -1.2240 H   0  0  0  0  0  0  0  0  0  0  0  0
    2.4470    4.6000   -2.5120 H   0  0  0  0  0  0  0  0  0  0  0  0
   -1.5220   -0.7080    1.6110 H   0  0  0  0  0  0  0  0  0  0  0  0
    2.0730    3.4010    0.1020 H   0  0  0  0  0  0  0  0  0  0  0  0
    1.5070    5.0060   -0.4190 H   0  0  0  0  0  0  0  0  0  0  0  0
    2.7640    1.4320   -3.3590 H   0  0  0  0  0  0  0  0  0  0  0  0
    2.5640   -0.3240   -3.5700 H   0  0  0  0  0  0  0  0  0  0  0  0
    3.6900    0.3030   -2.3420 H   0  0  0  0  0  0  0  0  0  0  0  0
    4.4000    4.0680   -0.3110 H   0  0  0  0  0  0  0  0  0  0  0  0
    3.6180    5.1940    0.8240 H   0  0  0  0  0  0  0  0  0  0  0  0
   -1.3930    2.3220    1.7990 H   0  0  0  0  0  0  0  0  0  0  0  0
   -0.3910    1.1710    2.7160 H   0  0  0  0  0  0  0  0  0  0  0  0
   -2.1500    1.2300    2.9830 H   0  0  0  0  0  0  0  0  0  0  0  0
   -3.0030    1.4060    0.0080 H   0  0  0  0  0  0  0  0  0  0  0  0
   -3.7130    0.3420    1.2460 H   0  0  0  0  0  0  0  0  0  0  0  0
   -3.0710   -0.3520   -0.2620 H   0  0  0  0  0  0  0  0  0  0  0  0
    2.0760   -2.7150    0.6830 H   0  0  0  0  0  0  0  0  0  0  0  0
    0.9620   -3.3480   -0.5530 H   0  0  0  0  0  0  0  0  0  0  0  0
    5.4000    7.3270   -1.4600 H   0  0  0  0  0  0  0  0  0  0  0  0
    5.9860    5.7480   -0.8860 H   0  0  0  0  0  0  0  0  0  0  0  0
    5.2040    6.8740    0.2500 H   0  0  0  0  0  0  0  0  0  0  0  0
    0.7690   -3.8100    2.4180 H   0  0  0  0  0  0  0  0  0  0  0  0
    1.3640   -4.9710    1.2080 H   0  0  0  0  0  0  0  0  0  0  0  0
   -0.3370   -4.4490    1.1790 H   0  0  0  0  0  0  0  0  0  0  0  0
  1  2  1  0  0  0  0
  1  8  2  0  0  0  0
  1  9  2  0  0  0  0
  1 10  1  0  0  0  0
  2  4  2  0  0  0  0
  2  6  1  0  0  0  0
  3  4  1  0  0  0  0
  3  5  2  0  0  0  0
  3 11  1  0  0  0  0
  4 22  1  0  0  0  0
  5  7  1  0  0  0  0
  5 12  1  0  0  0  0
  6  7  2  0  0  0  0
  6 14  1  0  0  0  0
  7 23  1  0  0  0  0
 10 13  1  0  0  0  0
 10 24  1  0  0  0  0
 11 17  1  0  0  0  0
 11 18  1  0  0  0  0
 11 25  1  0  0  0  0
 12 19  1  0  0  0  0
 13 16  1  0  0  0  0
 13 26  1  0  0  0  0
 13 27  1  0  0  0  0
 14 28  1  0  0  0  0
 14 29  1  0  0  0  0
 14 30  1  0  0  0  0
 15 16  1  0  0  0  0
 15 20  1  0  0  0  0
 16 31  1  0  0  0  0
 16 32  1  0  0  0  0
 17 33  1  0  0  0  0
 17 34  1  0  0  0  0
 17 35  1  0  0  0  0
 18 36  1  0  0  0  0
 18 37  1  0  0  0  0
 18 38  1  0  0  0  0
 19 21  1  0  0  0  0
 19 39  1  0  0  0  0
 19 40  1  0  0  0  0
 20 41  1  0  0  0  0
 20 42  1  0  0  0  0
 20 43  1  0  0  0  0
 21 44  1  0  0  0  0
 21 45  1  0  0  0  0
 21 46  1  0  0  0  0
M  END
>  <$CLUSTER>
609

>  <INDEX>
401664

$$$$
Labotest LT01411268
  MOE2020           3D

 34 35  0  0  0  0  0  0  0  0999 V2000
    1.5310    2.5190    0.9710 C   0  0  0  0  0  0  0  0  0  0  0  0
    0.5450    1.6560    0.6010 N   0  0  0  0  0  0  0  0  0  0  0  0
    1.8340    2.6070    2.4460 C   0  0  0  0  0  0  0  0  0  0  0  0
   -0.2060   -2.3770   -0.7550 C   0  0  0  0  0  0  0  0  0  0  0  0
    2.1750    3.2150    0.1820 O   0  0  0  0  0  0  0  0  0  0  0  0
   -0.2610    0.7980    1.4750 C   0  0  0  0  0  0  0  0  0  0  0  0
    0.1630    1.4860   -0.8050 C   0  0  0  0  0  0  0  0  0  0  0  0
   -0.4620   -0.9230   -0.3640 C   0  0  0  0  0  0  0  0  0  0  0  0
    1.5750    1.5460    3.3050 C   0  0  0  0  0  0  0  0  0  0  0  0
   -1.0510   -3.1890   -0.2100 O   0  0  0  0  0  0  0  0  0  0  0  0
   -0.1100   -0.6770    1.1070 C   0  0  0  0  0  0  0  0  0  0  0  0
    0.3310    0.0370   -1.2590 C   0  0  0  0  0  0  0  0  0  0  0  0
    0.7810   -2.6420   -1.4560 O   0  5  0  0  0  0  0  0  0  0  0  0
    1.8740    1.6720    4.6630 C   0  0  0  0  0  0  0  0  0  0  0  0
    2.4030    3.7870    2.9250 C   0  0  0  0  0  0  0  0  0  0  0  0
    2.7000    3.9070    4.2840 C   0  0  0  0  0  0  0  0  0  0  0  0
    2.4340    2.8510    5.1520 C   0  0  0  0  0  0  0  0  0  0  0  0
    1.5950    0.5380    5.5960 C   0  0  0  0  0  0  0  0  0  0  0  0
   -1.3090    1.0810    1.3800 H   0  0  0  0  0  0  0  0  0  0  0  0
    0.0620    0.9400    2.5060 H   0  0  0  0  0  0  0  0  0  0  0  0
    0.7930    2.1260   -1.4230 H   0  0  0  0  0  0  0  0  0  0  0  0
   -0.8810    1.7770   -0.9260 H   0  0  0  0  0  0  0  0  0  0  0  0
   -1.5260   -0.7310   -0.5040 H   0  0  0  0  0  0  0  0  0  0  0  0
    1.1460    0.6310    2.9250 H   0  0  0  0  0  0  0  0  0  0  0  0
   -0.7750   -1.2700    1.7350 H   0  0  0  0  0  0  0  0  0  0  0  0
    0.9220   -0.9820    1.2810 H   0  0  0  0  0  0  0  0  0  0  0  0
    1.3870   -0.2280   -1.2160 H   0  0  0  0  0  0  0  0  0  0  0  0
   -0.0260   -0.0570   -2.2850 H   0  0  0  0  0  0  0  0  0  0  0  0
    2.6130    4.6030    2.2490 H   0  0  0  0  0  0  0  0  0  0  0  0
    3.1360    4.8200    4.6620 H   0  0  0  0  0  0  0  0  0  0  0  0
    2.6620    2.9460    6.2040 H   0  0  0  0  0  0  0  0  0  0  0  0
    1.1610   -0.2920    5.0390 H   0  0  0  0  0  0  0  0  0  0  0  0
    0.8950    0.8640    6.3650 H   0  0  0  0  0  0  0  0  0  0  0  0
    2.5250    0.2150    6.0640 H   0  0  0  0  0  0  0  0  0  0  0  0
  1  2  1  0  0  0  0
  1  3  1  0  0  0  0
  1  5  2  0  0  0  0
  2  6  1  0  0  0  0
  2  7  1  0  0  0  0
  3  9  2  0  0  0  0
  3 15  1  0  0  0  0
  4  8  1  0  0  0  0
  4 10  2  0  0  0  0
  4 13  1  0  0  0  0
  6 11  1  0  0  0  0
  6 19  1  0  0  0  0
  6 20  1  0  0  0  0
  7 12  1  0  0  0  0
  7 21  1  0  0  0  0
  7 22  1  0  0  0  0
  8 11  1  0  0  0  0
  8 12  1  0  0  0  0
  8 23  1  0  0  0  0
  9 14  1  0  0  0  0
  9 24  1  0  0  0  0
 11 25  1  0  0  0  0
 11 26  1  0  0  0  0
 12 27  1  0  0  0  0
 12 28  1  0  0  0  0
 14 17  2  0  0  0  0
 14 18  1  0  0  0  0
 15 16  2  0  0  0  0
 15 29  1  0  0  0  0
 16 17  1  0  0  0  0
 16 30  1  0  0  0  0
 17 31  1  0  0  0  0
 18 32  1  0  0  0  0
 18 33  1  0  0  0  0
 18 34  1  0  0  0  0
M  CHG  1  13  -1
M  END
>  <$CLUSTER>
610

>  <INDEX>
322916

$$$$
Specs AQ-360/43019639
  MOE2020           3D

 37 38  0  0  0  0  0  0  0  0999 V2000
   -0.0180   -2.3240   -2.1300 C   0  0  0  0  0  0  0  0  0  0  0  0
   -0.2100   -1.5620   -1.0230 N   0  0  0  0  0  0  0  0  0  0  0  0
   -0.9600   -2.1740   -3.1260 N   0  0  0  0  0  0  0  0  0  0  0  0
    0.0510    0.8220    0.6960 N   0  3  0  0  0  0  0  0  0  0  0  0
    0.9310   -3.0980   -2.2800 O   0  0  0  0  0  0  0  0  0  0  0  0
   -1.3610   -0.6890   -0.7360 C   0  0  0  0  0  0  0  0  0  0  0  0
    0.7800   -1.5030    0.0660 C   0  0  0  0  0  0  0  0  0  0  0  0
   -1.1240   -2.7510   -4.3830 C   0  0  0  0  0  0  0  0  0  0  0  0
    1.2470   -0.0640    0.3930 C   0  0  0  0  0  0  0  0  0  0  0  0
   -0.9610    0.7750   -0.4350 C   0  0  0  0  0  0  0  0  0  0  0  0
   -1.5330   -3.8600   -6.9320 C   0  0  0  0  0  0  0  0  0  0  0  0
   -1.7960   -4.3400   -8.1470 F   0  0  0  0  0  0  0  0  0  0  0  0
   -0.2290   -3.6940   -4.8960 C   0  0  0  0  0  0  0  0  0  0  0  0
   -2.2270   -2.3700   -5.1630 C   0  0  0  0  0  0  0  0  0  0  0  0
   -2.4300   -2.9220   -6.4300 C   0  0  0  0  0  0  0  0  0  0  0  0
   -0.4350   -4.2450   -6.1660 C   0  0  0  0  0  0  0  0  0  0  0  0
    0.4550    2.2220    1.0390 C   0  0  0  0  0  0  0  0  0  0  0  0
    1.1500    2.3060    2.3890 C   0  0  0  0  0  0  0  0  0  0  0  0
   -1.6820   -1.5060   -2.8960 H   0  0  0  0  0  0  0  0  0  0  0  0
   -0.4000    0.4520    1.5210 H   0  0  0  0  0  0  0  0  0  0  0  0
   -1.8900   -1.0880    0.1300 H   0  0  0  0  0  0  0  0  0  0  0  0
   -2.0240   -0.6950   -1.6010 H   0  0  0  0  0  0  0  0  0  0  0  0
    1.6500   -2.0910   -0.2260 H   0  0  0  0  0  0  0  0  0  0  0  0
    0.3340   -1.9340    0.9620 H   0  0  0  0  0  0  0  0  0  0  0  0
    1.9060   -0.0880    1.2610 H   0  0  0  0  0  0  0  0  0  0  0  0
    1.7880    0.3420   -0.4620 H   0  0  0  0  0  0  0  0  0  0  0  0
   -0.5230    1.2190   -1.3290 H   0  0  0  0  0  0  0  0  0  0  0  0
   -1.8490    1.3390   -0.1470 H   0  0  0  0  0  0  0  0  0  0  0  0
    0.6250   -3.9990   -4.3100 H   0  0  0  0  0  0  0  0  0  0  0  0
   -2.9260   -1.6420   -4.7790 H   0  0  0  0  0  0  0  0  0  0  0  0
   -3.2830   -2.6210   -7.0200 H   0  0  0  0  0  0  0  0  0  0  0  0
    0.2620   -4.9730   -6.5550 H   0  0  0  0  0  0  0  0  0  0  0  0
   -0.4370    2.8480    1.0640 H   0  0  0  0  0  0  0  0  0  0  0  0
    1.1350    2.5890    0.2710 H   0  0  0  0  0  0  0  0  0  0  0  0
    0.4790    1.9410    3.1670 H   0  0  0  0  0  0  0  0  0  0  0  0
    1.4170    3.3420    2.5960 H   0  0  0  0  0  0  0  0  0  0  0  0
    2.0520    1.6950    2.3720 H   0  0  0  0  0  0  0  0  0  0  0  0
  1  2  1  0  0  0  0
  1  3  1  0  0  0  0
  1  5  2  0  0  0  0
  2  6  1  0  0  0  0
  2  7  1  0  0  0  0
  3  8  1  0  0  0  0
  3 19  1  0  0  0  0
  4  9  1  0  0  0  0
  4 10  1  0  0  0  0
  4 17  1  0  0  0  0
  4 20  1  0  0  0  0
  6 10  1  0  0  0  0
  6 21  1  0  0  0  0
  6 22  1  0  0  0  0
  7  9  1  0  0  0  0
  7 23  1  0  0  0  0
  7 24  1  0  0  0  0
  8 13  1  0  0  0  0
  8 14  2  0  0  0  0
  9 25  1  0  0  0  0
  9 26  1  0  0  0  0
 10 27  1  0  0  0  0
 10 28  1  0  0  0  0
 11 12  1  0  0  0  0
 11 15  2  0  0  0  0
 11 16  1  0  0  0  0
 13 16  2  0  0  0  0
 13 29  1  0  0  0  0
 14 15  1  0  0  0  0
 14 30  1  0  0  0  0
 15 31  1  0  0  0  0
 16 32  1  0  0  0  0
 17 18  1  0  0  0  0
 17 33  1  0  0  0  0
 17 34  1  0  0  0  0
 18 35  1  0  0  0  0
 18 36  1  0  0  0  0
 18 37  1  0  0  0  0
M  CHG  1   4   1
M  END
>  <$CLUSTER>
611

>  <INDEX>
534700

$$$$
FCHC 26560
  MOE2020           3D

 34 36  0  0  0  0  0  0  0  0999 V2000
    0.9250    0.8250    0.0730 C   0  0  0  0  0  0  0  0  0  0  0  0
   -0.1190    1.8960    0.3840 C   0  0  0  0  0  0  0  0  0  0  0  0
    0.1800   -0.4230   -0.0970 C   0  0  0  0  0  0  0  0  0  0  0  0
   -1.3340    1.2530    0.3650 N   0  0  0  0  0  0  0  0  0  0  0  0
    2.1820    1.1370    0.0110 N   0  0  0  0  0  0  0  0  0  0  0  0
   -1.1690   -0.0960    0.0860 C   0  0  0  0  0  0  0  0  0  0  0  0
    3.0410    0.1400   -0.3040 N   0  0  0  0  0  0  0  0  0  0  0  0
    4.3930    0.3590   -0.3970 C   0  0  0  0  0  0  0  0  0  0  0  0
    0.5610   -1.7170   -0.3660 C   0  0  0  0  0  0  0  0  0  0  0  0
    5.1650   -0.8850   -0.7580 C   0  0  0  0  0  0  0  0  0  0  0  0
    0.1380    3.0730    0.5960 O   0  0  0  0  0  0  0  0  0  0  0  0
    4.9520    1.4410   -0.2130 O   0  0  0  0  0  0  0  0  0  0  0  0
   -2.1710   -1.0390   -0.0030 C   0  0  0  0  0  0  0  0  0  0  0  0
    6.5320   -0.8980   -0.3640 C   0  0  0  0  0  0  0  0  0  0  0  0
    4.6460   -1.9290   -1.4730 C   0  0  0  0  0  0  0  0  0  0  0  0
   -0.4410   -2.6920   -0.4610 C   0  0  0  0  0  0  0  0  0  0  0  0
    6.7770   -3.0730   -1.3880 C   0  0  0  0  0  0  0  0  0  0  0  0
   -1.7950   -2.3560   -0.2830 C   0  0  0  0  0  0  0  0  0  0  0  0
    5.4410   -3.0340   -1.7860 C   0  0  0  0  0  0  0  0  0  0  0  0
    7.3230   -2.0050   -0.6790 C   0  0  0  0  0  0  0  0  0  0  0  0
    7.7280   -4.4310   -1.7740 Cl  0  0  0  0  0  0  0  0  0  0  0  0
   -0.0640   -4.1110   -0.7550 C   0  0  0  0  0  0  0  0  0  0  0  0
   -2.2240    1.7010    0.5310 H   0  0  0  0  0  0  0  0  0  0  0  0
    2.6790   -0.7870   -0.4750 H   0  0  0  0  0  0  0  0  0  0  0  0
    1.6010   -1.9740   -0.5000 H   0  0  0  0  0  0  0  0  0  0  0  0
   -3.2070   -0.7700    0.1380 H   0  0  0  0  0  0  0  0  0  0  0  0
    6.9530   -0.0610    0.1730 H   0  0  0  0  0  0  0  0  0  0  0  0
    3.6160   -1.8990   -1.7970 H   0  0  0  0  0  0  0  0  0  0  0  0
   -2.5510   -3.1230   -0.3630 H   0  0  0  0  0  0  0  0  0  0  0  0
    5.0200   -3.8610   -2.3380 H   0  0  0  0  0  0  0  0  0  0  0  0
    8.3580   -2.0330   -0.3730 H   0  0  0  0  0  0  0  0  0  0  0  0
    1.0180   -4.1850   -0.8610 H   0  0  0  0  0  0  0  0  0  0  0  0
   -0.5430   -4.4300   -1.6810 H   0  0  0  0  0  0  0  0  0  0  0  0
   -0.3930   -4.7510    0.0630 H   0  0  0  0  0  0  0  0  0  0  0  0
  1  2  1  0  0  0  0
  1  3  1  0  0  0  0
  1  5  2  0  0  0  0
  2  4  1  0  0  0  0
  2 11  2  0  0  0  0
  3  6  2  0  0  0  0
  3  9  1  0  0  0  0
  4  6  1  0  0  0  0
  4 23  1  0  0  0  0
  5  7  1  0  0  0  0
  6 13  1  0  0  0  0
  7  8  1  0  0  0  0
  7 24  1  0  0  0  0
  8 10  1  0  0  0  0
  8 12  2  0  0  0  0
  9 16  2  0  0  0  0
  9 25  1  0  0  0  0
 10 14  1  0  0  0  0
 10 15  2  0  0  0  0
 13 18  2  0  0  0  0
 13 26  1  0  0  0  0
 14 20  2  0  0  0  0
 14 27  1  0  0  0  0
 15 19  1  0  0  0  0
 15 28  1  0  0  0  0
 16 18  1  0  0  0  0
 16 22  1  0  0  0  0
 17 19  2  0  0  0  0
 17 20  1  0  0  0  0
 17 21  1  0  0  0  0
 18 29  1  0  0  0  0
 19 30  1  0  0  0  0
 20 31  1  0  0  0  0
 22 32  1  0  0  0  0
 22 33  1  0  0  0  0
 22 34  1  0  0  0  0
M  END
>  <$CLUSTER>
612

>  <INDEX>
230735

$$$$
Enamine T0504-2588
  MOE2020           3D

 36 38  0  0  0  0  0  0  0  0999 V2000
   -0.4880   -0.0660   -0.1450 N   0  0  0  0  0  0  0  0  0  0  0  0
    0.1590   -0.4510    1.0250 C   0  0  0  0  0  0  0  0  0  0  0  0
    1.6010    0.7020   -0.3240 N   0  0  0  0  0  0  0  0  0  0  0  0
    0.4360    0.6270   -0.9210 C   0  0  0  0  0  0  0  0  0  0  0  0
    1.4520    0.0440    0.8740 C   0  0  0  0  0  0  0  0  0  0  0  0
   -0.4630   -1.1960    2.0940 C   0  0  0  0  0  0  0  0  0  0  0  0
    0.1080   -1.5460    3.2000 N   0  0  0  0  0  0  0  0  0  0  0  0
   -1.8060   -0.2820   -0.5600 C   0  0  0  0  0  0  0  0  0  0  0  0
   -0.0020    1.1260   -2.1830 C   0  0  0  0  0  0  0  0  0  0  0  0
   -2.2130    0.1910   -1.7500 C   0  0  0  0  0  0  0  0  0  0  0  0
   -0.6260   -2.2370    4.0850 N   0  0  0  0  0  0  0  0  0  0  0  0
   -1.2700    0.9180   -2.5810 C   0  0  0  0  0  0  0  0  0  0  0  0
   -0.0660   -2.6530    5.3160 C   0  0  0  0  0  0  0  0  0  0  0  0
   -0.8300   -3.3840    6.2600 C   0  0  0  0  0  0  0  0  0  0  0  0
    2.6220   -0.0400    1.7780 C   0  0  0  0  0  0  0  0  0  0  0  0
    1.2710   -2.3510    5.6400 C   0  0  0  0  0  0  0  0  0  0  0  0
   -2.2690   -3.7540    6.0030 C   0  0  0  0  0  0  0  0  0  0  0  0
   -0.2420   -3.7820    7.4770 C   0  0  0  0  0  0  0  0  0  0  0  0
    1.0840   -3.4680    7.7690 C   0  0  0  0  0  0  0  0  0  0  0  0
    1.8420   -2.7510    6.8500 C   0  0  0  0  0  0  0  0  0  0  0  0
   -1.4940   -1.4860    1.9580 H   0  0  0  0  0  0  0  0  0  0  0  0
   -2.4920   -0.8260    0.0720 H   0  0  0  0  0  0  0  0  0  0  0  0
    0.6820    1.6690   -2.8180 H   0  0  0  0  0  0  0  0  0  0  0  0
   -3.2280    0.0330   -2.0840 H   0  0  0  0  0  0  0  0  0  0  0  0
   -1.5870   -2.4620    3.8710 H   0  0  0  0  0  0  0  0  0  0  0  0
   -1.5930    1.3000   -3.5380 H   0  0  0  0  0  0  0  0  0  0  0  0
    2.3460   -0.5880    2.6790 H   0  0  0  0  0  0  0  0  0  0  0  0
    2.9450    0.9650    2.0480 H   0  0  0  0  0  0  0  0  0  0  0  0
    3.4360   -0.5590    1.2720 H   0  0  0  0  0  0  0  0  0  0  0  0
    1.8700   -1.7950    4.9340 H   0  0  0  0  0  0  0  0  0  0  0  0
   -2.5720   -3.3760    5.0270 H   0  0  0  0  0  0  0  0  0  0  0  0
   -2.9010   -3.3140    6.7750 H   0  0  0  0  0  0  0  0  0  0  0  0
   -2.3740   -4.8390    6.0220 H   0  0  0  0  0  0  0  0  0  0  0  0
   -0.8270   -4.3380    8.1940 H   0  0  0  0  0  0  0  0  0  0  0  0
    1.5210   -3.7800    8.7060 H   0  0  0  0  0  0  0  0  0  0  0  0
    2.8700   -2.5040    7.0710 H   0  0  0  0  0  0  0  0  0  0  0  0
  1  2  1  0  0  0  0
  1  4  1  0  0  0  0
  1  8  1  0  0  0  0
  2  5  2  0  0  0  0
  2  6  1  0  0  0  0
  3  4  2  0  0  0  0
  3  5  1  0  0  0  0
  4  9  1  0  0  0  0
  5 15  1  0  0  0  0
  6  7  2  0  0  0  0
  6 21  1  0  0  0  0
  7 11  1  0  0  0  0
  8 10  2  0  0  0  0
  8 22  1  0  0  0  0
  9 12  2  0  0  0  0
  9 23  1  0  0  0  0
 10 12  1  0  0  0  0
 10 24  1  0  0  0  0
 11 13  1  0  0  0  0
 11 25  1  0  0  0  0
 12 26  1  0  0  0  0
 13 14  2  0  0  0  0
 13 16  1  0  0  0  0
 14 17  1  0  0  0  0
 14 18  1  0  0  0  0
 15 27  1  0  0  0  0
 15 28  1  0  0  0  0
 15 29  1  0  0  0  0
 16 20  2  0  0  0  0
 16 30  1  0  0  0  0
 17 31  1  0  0  0  0
 17 32  1  0  0  0  0
 17 33  1  0  0  0  0
 18 19  2  0  0  0  0
 18 34  1  0  0  0  0
 19 20  1  0  0  0  0
 19 35  1  0  0  0  0
 20 36  1  0  0  0  0
M  END
>  <$CLUSTER>
613

>  <INDEX>
409814

$$$$
TimTec ST031526
  MOE2020           3D

 37 39  0  0  0  0  0  0  0  0999 V2000
   -0.3270    0.1730   -0.3660 C   0  0  0  0  0  0  0  0  0  0  0  0
   -0.8730   -0.7480    0.4660 N   0  0  0  0  0  0  0  0  0  0  0  0
   -1.0130    0.7450   -1.3840 N   0  0  0  0  0  0  0  0  0  0  0  0
    1.7410    0.0420    0.8020 N   0  0  0  0  0  0  0  0  0  0  0  0
    1.0040    0.5720   -0.1920 N   0  0  0  0  0  0  0  0  0  0  0  0
   -2.2960    0.3630   -1.5550 C   0  0  0  0  0  0  0  0  0  0  0  0
   -2.1600   -1.0920    0.2470 C   0  0  0  0  0  0  0  0  0  0  0  0
   -2.9300   -0.5630   -0.7600 C   0  0  0  0  0  0  0  0  0  0  0  0
    6.1220    0.1390    2.8250 C   0  0  0  0  0  0  0  0  0  0  0  0
    5.1930    0.5570    1.8720 C   0  0  0  0  0  0  0  0  0  0  0  0
    5.7640   -0.8100    3.7820 C   0  0  0  0  0  0  0  0  0  0  0  0
    2.9490    0.4970    0.8480 C   0  0  0  0  0  0  0  0  0  0  0  0
    4.4740   -1.3430    3.7890 C   0  0  0  0  0  0  0  0  0  0  0  0
    3.9040    0.0120    1.8930 C   0  0  0  0  0  0  0  0  0  0  0  0
    3.5390   -0.9290    2.8380 C   0  0  0  0  0  0  0  0  0  0  0  0
    7.4370    0.6730    2.8300 C   0  0  0  0  0  0  0  0  0  0  0  0
   -2.7560   -2.1130    1.1740 C   0  0  0  0  0  0  0  0  0  0  0  0
   -3.0260    1.0360   -2.7150 C   0  0  0  0  0  0  0  0  0  0  0  0
    6.7240   -1.2240    4.7460 C   0  0  0  0  0  0  0  0  0  0  0  0
    8.3680    0.2570    3.7820 C   0  0  0  0  0  0  0  0  0  0  0  0
    8.0130   -0.6900    4.7380 C   0  0  0  0  0  0  0  0  0  0  0  0
    1.4110    1.2570   -0.8120 H   0  0  0  0  0  0  0  0  0  0  0  0
   -3.9590   -0.8530   -0.9160 H   0  0  0  0  0  0  0  0  0  0  0  0
    5.4650    1.2910    1.1280 H   0  0  0  0  0  0  0  0  0  0  0  0
    3.2720    1.2330    0.1270 H   0  0  0  0  0  0  0  0  0  0  0  0
    4.1980   -2.0770    4.5320 H   0  0  0  0  0  0  0  0  0  0  0  0
    2.5400   -1.3400    2.8410 H   0  0  0  0  0  0  0  0  0  0  0  0
    7.7190    1.4080    2.0900 H   0  0  0  0  0  0  0  0  0  0  0  0
   -2.0080   -2.4200    1.9050 H   0  0  0  0  0  0  0  0  0  0  0  0
   -3.0800   -2.9810    0.5990 H   0  0  0  0  0  0  0  0  0  0  0  0
   -3.6120   -1.6790    1.6900 H   0  0  0  0  0  0  0  0  0  0  0  0
   -2.3510    1.7310   -3.2150 H   0  0  0  0  0  0  0  0  0  0  0  0
   -3.8910    1.5790   -2.3340 H   0  0  0  0  0  0  0  0  0  0  0  0
   -3.3570    0.2780   -3.4250 H   0  0  0  0  0  0  0  0  0  0  0  0
    6.4530   -1.9580    5.4910 H   0  0  0  0  0  0  0  0  0  0  0  0
    9.3660    0.6700    3.7770 H   0  0  0  0  0  0  0  0  0  0  0  0
    8.7350   -1.0120    5.4740 H   0  0  0  0  0  0  0  0  0  0  0  0
  1  2  1  0  0  0  0
  1  3  2  0  0  0  0
  1  5  1  0  0  0  0
  2  7  2  0  0  0  0
  3  6  1  0  0  0  0
  4  5  1  0  0  0  0
  4 12  2  0  0  0  0
  5 22  1  0  0  0  0
  6  8  2  0  0  0  0
  6 18  1  0  0  0  0
  7  8  1  0  0  0  0
  7 17  1  0  0  0  0
  8 23  1  0  0  0  0
  9 10  1  0  0  0  0
  9 11  2  0  0  0  0
  9 16  1  0  0  0  0
 10 14  2  0  0  0  0
 10 24  1  0  0  0  0
 11 13  1  0  0  0  0
 11 19  1  0  0  0  0
 12 14  1  0  0  0  0
 12 25  1  0  0  0  0
 13 15  2  0  0  0  0
 13 26  1  0  0  0  0
 14 15  1  0  0  0  0
 15 27  1  0  0  0  0
 16 20  2  0  0  0  0
 16 28  1  0  0  0  0
 17 29  1  0  0  0  0
 17 30  1  0  0  0  0
 17 31  1  0  0  0  0
 18 32  1  0  0  0  0
 18 33  1  0  0  0  0
 18 34  1  0  0  0  0
 19 21  2  0  0  0  0
 19 35  1  0  0  0  0
 20 21  1  0  0  0  0
 20 36  1  0  0  0  0
 21 37  1  0  0  0  0
M  END
>  <$CLUSTER>
614

>  <INDEX>
641560

$$$$
Chem T&I DIMA0004887
  MOE2020           3D

 33 35  0  0  0  0  0  0  0  0999 V2000
    0.6160   -1.1280    0.0840 C   0  0  0  0  0  0  0  0  0  0  0  0
    0.1650    0.0130    0.6460 C   0  0  0  0  0  0  0  0  0  0  0  0
    1.3580   -2.1120    0.9250 C   0  0  0  0  0  0  0  0  0  0  0  0
    1.5330   -1.7750    2.2450 N   0  0  0  0  0  0  0  0  0  0  0  0
    0.4080    0.2700    2.0630 C   0  0  0  0  0  0  0  0  0  0  0  0
    1.0740   -0.6180    2.8070 C   0  0  0  0  0  0  0  0  0  0  0  0
    0.4260   -1.4620   -1.2870 C   0  0  0  0  0  0  0  0  0  0  0  0
   -0.5730    1.0040   -0.1650 C   0  0  0  0  0  0  0  0  0  0  0  0
    0.2690   -1.7310   -2.4090 N   0  0  0  0  0  0  0  0  0  0  0  0
    1.3080   -0.3870    4.2180 C   0  0  0  0  0  0  0  0  0  0  0  0
    1.7880   -3.1640    0.4580 O   0  0  0  0  0  0  0  0  0  0  0  0
    0.1190    2.0320   -0.8210 C   0  0  0  0  0  0  0  0  0  0  0  0
    2.0140    0.7440    4.6560 C   0  0  0  0  0  0  0  0  0  0  0  0
    0.8380   -1.3030    5.1730 C   0  0  0  0  0  0  0  0  0  0  0  0
   -0.5820    2.9710   -1.5790 C   0  0  0  0  0  0  0  0  0  0  0  0
    1.7650    0.0410    6.9560 C   0  0  0  0  0  0  0  0  0  0  0  0
    1.0650   -1.0870    6.5340 C   0  0  0  0  0  0  0  0  0  0  0  0
    2.2400    0.9560    6.0180 C   0  0  0  0  0  0  0  0  0  0  0  0
    0.2460    4.2210   -2.3850 Cl  0  0  0  0  0  0  0  0  0  0  0  0
    1.9360    0.1720    8.2720 F   0  0  0  0  0  0  0  0  0  0  0  0
   -1.9690    0.9330   -0.2630 C   0  0  0  0  0  0  0  0  0  0  0  0
   -2.6640    1.8750   -1.0230 C   0  0  0  0  0  0  0  0  0  0  0  0
   -1.9710    2.8910   -1.6810 C   0  0  0  0  0  0  0  0  0  0  0  0
    2.0320   -2.4230    2.8370 H   0  0  0  0  0  0  0  0  0  0  0  0
    0.0470    1.1830    2.5120 H   0  0  0  0  0  0  0  0  0  0  0  0
    1.1940    2.0970   -0.7400 H   0  0  0  0  0  0  0  0  0  0  0  0
    2.3860    1.4560    3.9340 H   0  0  0  0  0  0  0  0  0  0  0  0
    0.2970   -2.1810    4.8530 H   0  0  0  0  0  0  0  0  0  0  0  0
    0.6970   -1.7960    7.2610 H   0  0  0  0  0  0  0  0  0  0  0  0
    2.7840    1.8300    6.3450 H   0  0  0  0  0  0  0  0  0  0  0  0
   -2.5070    0.1490    0.2500 H   0  0  0  0  0  0  0  0  0  0  0  0
   -3.7400    1.8170   -1.1020 H   0  0  0  0  0  0  0  0  0  0  0  0
   -2.5110    3.6170   -2.2710 H   0  0  0  0  0  0  0  0  0  0  0  0
  1  2  2  0  0  0  0
  1  3  1  0  0  0  0
  1  7  1  0  0  0  0
  2  5  1  0  0  0  0
  2  8  1  0  0  0  0
  3  4  1  0  0  0  0
  3 11  2  0  0  0  0
  4  6  1  0  0  0  0
  4 24  1  0  0  0  0
  5  6  2  0  0  0  0
  5 25  1  0  0  0  0
  6 10  1  0  0  0  0
  7  9  3  0  0  0  0
  8 12  2  0  0  0  0
  8 21  1  0  0  0  0
 10 13  1  0  0  0  0
 10 14  2  0  0  0  0
 12 15  1  0  0  0  0
 12 26  1  0  0  0  0
 13 18  2  0  0  0  0
 13 27  1  0  0  0  0
 14 17  1  0  0  0  0
 14 28  1  0  0  0  0
 15 19  1  0  0  0  0
 15 23  2  0  0  0  0
 16 17  2  0  0  0  0
 16 18  1  0  0  0  0
 16 20  1  0  0  0  0
 17 29  1  0  0  0  0
 18 30  1  0  0  0  0
 21 22  2  0  0  0  0
 21 31  1  0  0  0  0
 22 23  1  0  0  0  0
 22 32  1  0  0  0  0
 23 33  1  0  0  0  0
M  END
>  <$CLUSTER>
615

>  <INDEX>
548177

$$$$
Enamine T0501-8939
  MOE2020           3D

 27 29  0  0  0  0  0  0  0  0999 V2000
   -1.4310   -1.9970    2.3170 C   0  0  0  0  0  0  0  0  0  0  0  0
   -0.2370   -0.5420    0.2530 C   0  0  0  0  0  0  0  0  0  0  0  0
   -1.4030   -0.9220   -0.3180 N   0  0  0  0  0  0  0  0  0  0  0  0
    0.6590    0.2440   -0.4560 C   0  0  0  0  0  0  0  0  0  0  0  0
    1.9110    0.6870    0.0920 N   0  3  0  0  0  0  0  0  0  0  0  0
    0.1000   -1.1110    1.9190 S   0  0  0  0  0  0  0  0  0  0  0  0
   -2.4050   -2.0730    1.4530 N   0  0  0  0  0  0  0  0  0  0  0  0
   -1.6430   -2.7510    3.8210 S   0  0  0  0  0  0  0  0  0  0  0  0
   -1.6250   -0.5000   -1.5810 C   0  0  0  0  0  0  0  0  0  0  0  0
   -0.8120    0.2590   -2.3400 N   0  0  0  0  0  0  0  0  0  0  0  0
   -3.4290   -2.8010    2.0260 C   0  0  0  0  0  0  0  0  0  0  0  0
    0.3390    0.6220   -1.7470 C   0  0  0  0  0  0  0  0  0  0  0  0
   -3.2000   -3.2520    3.3090 C   0  0  0  0  0  0  0  0  0  0  0  0
    2.9310    0.1120   -0.3070 O   0  5  0  0  0  0  0  0  0  0  0  0
    1.8700    1.6160    0.9080 O   0  0  0  0  0  0  0  0  0  0  0  0
   -2.8210   -0.9260   -2.0760 N   0  0  0  0  0  0  0  0  0  0  0  0
   -4.6740   -3.1090    1.4020 C   0  0  0  0  0  0  0  0  0  0  0  0
   -4.1650   -4.0130    4.0220 C   0  0  0  0  0  0  0  0  0  0  0  0
   -5.6300   -3.8560    2.0960 C   0  0  0  0  0  0  0  0  0  0  0  0
   -5.3760   -4.3010    3.3890 C   0  0  0  0  0  0  0  0  0  0  0  0
    1.0390    1.2310   -2.2990 H   0  0  0  0  0  0  0  0  0  0  0  0
   -3.0990   -0.6720   -3.0130 H   0  0  0  0  0  0  0  0  0  0  0  0
   -3.4300   -1.4950   -1.5050 H   0  0  0  0  0  0  0  0  0  0  0  0
   -4.8770   -2.7670    0.3980 H   0  0  0  0  0  0  0  0  0  0  0  0
   -3.9670   -4.3590    5.0260 H   0  0  0  0  0  0  0  0  0  0  0  0
   -6.5730   -4.0890    1.6250 H   0  0  0  0  0  0  0  0  0  0  0  0
   -6.1260   -4.8770    3.9110 H   0  0  0  0  0  0  0  0  0  0  0  0
  1  6  1  0  0  0  0
  1  7  2  0  0  0  0
  1  8  1  0  0  0  0
  2  3  2  0  0  0  0
  2  4  1  0  0  0  0
  2  6  1  0  0  0  0
  3  9  1  0  0  0  0
  4  5  1  0  0  0  0
  4 12  2  0  0  0  0
  5 14  1  0  0  0  0
  5 15  2  0  0  0  0
  7 11  1  0  0  0  0
  8 13  1  0  0  0  0
  9 10  2  0  0  0  0
  9 16  1  0  0  0  0
 10 12  1  0  0  0  0
 11 13  2  0  0  0  0
 11 17  1  0  0  0  0
 12 21  1  0  0  0  0
 13 18  1  0  0  0  0
 16 22  1  0  0  0  0
 16 23  1  0  0  0  0
 17 19  2  0  0  0  0
 17 24  1  0  0  0  0
 18 20  2  0  0  0  0
 18 25  1  0  0  0  0
 19 20  1  0  0  0  0
 19 26  1  0  0  0  0
 20 27  1  0  0  0  0
M  CHG  1   5   1
M  CHG  1  14  -1
M  END
>  <$CLUSTER>
616

>  <INDEX>
406029

$$$$
Enamine T0501-9078
  MOE2020           3D

 31 32  0  0  1  0  0  0  0  0999 V2000
    0.0750   -0.0050   -0.0470 C   0  0  0  0  0  0  0  0  0  0  0  0
    0.7890    0.1840   -1.1810 N   0  0  0  0  0  0  0  0  0  0  0  0
    2.0780   -0.2120   -1.1070 C   0  0  0  0  0  0  0  0  0  0  0  0
   -1.6270    0.5050   -0.1100 S   0  0  0  0  0  0  0  0  0  0  0  0
    2.8490    0.0320   -2.3550 C   0  0  0  0  0  0  0  0  0  0  0  0
    2.0380    0.1950   -3.6210 C   0  0  3  0  0  0  0  0  0  0  0  0
    0.5060   -0.5330    1.1180 N   0  0  0  0  0  0  0  0  0  0  0  0
    2.6400   -0.7670    0.0300 C   0  0  0  0  0  0  0  0  0  0  0  0
    1.4360    1.5990   -3.7070 C   0  0  0  0  0  0  0  0  0  0  0  0
    1.0100    2.6430   -3.7620 N   0  0  0  0  0  0  0  0  0  0  0  0
    2.8770   -0.0940   -4.8770 C   0  0  0  0  0  0  0  0  0  0  0  0
   -1.6680    1.9580   -0.2690 O   0  0  0  0  0  0  0  0  0  0  0  0
   -2.3290   -0.3470   -1.0690 O   0  0  0  0  0  0  0  0  0  0  0  0
    1.8030   -0.9070    1.1230 C   0  0  0  0  0  0  0  0  0  0  0  0
    4.0740    0.1400   -2.3670 O   0  0  0  0  0  0  0  0  0  0  0  0
    3.9670    0.6940   -5.0930 N   0  0  0  0  0  0  0  0  0  0  0  0
    4.2720   -1.3410    0.1770 Cl  0  0  0  0  0  0  0  0  0  0  0  0
   -2.2670    0.1260    1.5110 C   0  0  0  0  0  0  0  0  0  0  0  0
    4.7130    0.4230   -6.1950 C   0  0  0  0  0  0  0  0  0  0  0  0
    2.5280   -1.1470   -5.7210 C   0  0  0  0  0  0  0  0  0  0  0  0
    4.4300   -0.6010   -7.0880 C   0  0  0  0  0  0  0  0  0  0  0  0
    3.3170   -1.3970   -6.8420 C   0  0  0  0  0  0  0  0  0  0  0  0
    1.2300   -0.5350   -3.5790 H   0  0  0  0  0  0  0  0  0  0  0  0
    2.2080   -1.3380    2.0270 H   0  0  0  0  0  0  0  0  0  0  0  0
   -1.7640    0.7450    2.2540 H   0  0  0  0  0  0  0  0  0  0  0  0
   -2.0900   -0.9260    1.7350 H   0  0  0  0  0  0  0  0  0  0  0  0
   -3.3380    0.3270    1.5350 H   0  0  0  0  0  0  0  0  0  0  0  0
    5.5780    1.0410   -6.3880 H   0  0  0  0  0  0  0  0  0  0  0  0
    1.6620   -1.7580   -5.5100 H   0  0  0  0  0  0  0  0  0  0  0  0
    5.0570   -0.7750   -7.9500 H   0  0  0  0  0  0  0  0  0  0  0  0
    3.0660   -2.2030   -7.5150 H   0  0  0  0  0  0  0  0  0  0  0  0
  1  2  2  0  0  0  0
  1  4  1  0  0  0  0
  1  7  1  0  0  0  0
  2  3  1  0  0  0  0
  3  5  1  0  0  0  0
  3  8  2  0  0  0  0
  4 12  2  0  0  0  0
  4 13  2  0  0  0  0
  4 18  1  0  0  0  0
  5  6  1  0  0  0  0
  5 15  2  0  0  0  0
  6  9  1  0  0  0  0
  6 11  1  0  0  0  0
  6 23  1  0  0  0  0
  7 14  2  0  0  0  0
  8 14  1  0  0  0  0
  8 17  1  0  0  0  0
  9 10  3  0  0  0  0
 11 16  2  0  0  0  0
 11 20  1  0  0  0  0
 14 24  1  0  0  0  0
 16 19  1  0  0  0  0
 18 25  1  0  0  0  0
 18 26  1  0  0  0  0
 18 27  1  0  0  0  0
 19 21  2  0  0  0  0
 19 28  1  0  0  0  0
 20 22  2  0  0  0  0
 20 29  1  0  0  0  0
 21 22  1  0  0  0  0
 21 30  1  0  0  0  0
 22 31  1  0  0  0  0
M  END
>  <$CLUSTER>
617

>  <INDEX>
406071

$$$$
Chem T&I ARAK0117259
  MOE2020           3D

 39 41  0  0  0  0  0  0  0  0999 V2000
   -0.4190   -1.3050    0.4390 N   0  0  0  0  0  0  0  0  0  0  0  0
   -1.3400   -2.2700    0.7100 C   0  0  0  0  0  0  0  0  0  0  0  0
   -2.7300   -6.4470   -2.9700 C   0  0  0  0  0  0  0  0  0  0  0  0
   -1.5840   -3.2940   -0.3690 C   0  0  0  0  0  0  0  0  0  0  0  0
   -1.9700   -2.3480    1.7680 O   0  0  0  0  0  0  0  0  0  0  0  0
   -2.3110   -5.3890   -2.1590 C   0  0  0  0  0  0  0  0  0  0  0  0
   -3.7000   -7.3390   -2.5180 C   0  0  0  0  0  0  0  0  0  0  0  0
   -2.5330   -4.2330   -0.0280 O   0  0  0  0  0  0  0  0  0  0  0  0
   -4.2550   -7.1750   -1.2500 C   0  0  0  0  0  0  0  0  0  0  0  0
   -2.8650   -5.2180   -0.8870 C   0  0  0  0  0  0  0  0  0  0  0  0
   -3.8390   -6.1190   -0.4390 C   0  0  0  0  0  0  0  0  0  0  0  0
   -0.0980   -0.2550    1.4120 C   0  0  0  0  0  0  0  0  0  0  0  0
    0.3670   -1.1450   -0.7900 C   0  0  0  0  0  0  0  0  0  0  0  0
   -2.1680   -6.6200   -4.2620 C   0  0  0  0  0  0  0  0  0  0  0  0
   -4.1120   -8.4050   -3.3490 C   0  0  0  0  0  0  0  0  0  0  0  0
    0.1190    0.2150   -1.4400 C   0  0  0  0  0  0  0  0  0  0  0  0
   -0.3630    1.1370    0.8430 C   0  0  0  0  0  0  0  0  0  0  0  0
   -2.5850   -7.6770   -5.0730 C   0  0  0  0  0  0  0  0  0  0  0  0
   -3.5550   -8.5670   -4.6170 C   0  0  0  0  0  0  0  0  0  0  0  0
    0.3930    1.3540   -0.4640 C   0  0  0  0  0  0  0  0  0  0  0  0
   -0.6460   -3.8100   -0.5740 H   0  0  0  0  0  0  0  0  0  0  0  0
   -1.9180   -2.7760   -1.2680 H   0  0  0  0  0  0  0  0  0  0  0  0
   -1.5580   -4.7020   -2.5160 H   0  0  0  0  0  0  0  0  0  0  0  0
   -5.0070   -7.8650   -0.8960 H   0  0  0  0  0  0  0  0  0  0  0  0
   -4.2720   -5.9950    0.5430 H   0  0  0  0  0  0  0  0  0  0  0  0
    0.9550   -0.3320    1.6820 H   0  0  0  0  0  0  0  0  0  0  0  0
   -0.7120   -0.3970    2.3010 H   0  0  0  0  0  0  0  0  0  0  0  0
    0.0880   -1.9300   -1.4930 H   0  0  0  0  0  0  0  0  0  0  0  0
    1.4260   -1.2340   -0.5470 H   0  0  0  0  0  0  0  0  0  0  0  0
   -1.4160   -5.9320   -4.6190 H   0  0  0  0  0  0  0  0  0  0  0  0
   -4.8630   -9.0980   -3.0000 H   0  0  0  0  0  0  0  0  0  0  0  0
   -0.9200    0.2690   -1.7660 H   0  0  0  0  0  0  0  0  0  0  0  0
    0.7760    0.3210   -2.3030 H   0  0  0  0  0  0  0  0  0  0  0  0
   -0.0410    1.8840    1.5680 H   0  0  0  0  0  0  0  0  0  0  0  0
   -1.4310    1.2480    0.6580 H   0  0  0  0  0  0  0  0  0  0  0  0
   -2.1550   -7.8050   -6.0550 H   0  0  0  0  0  0  0  0  0  0  0  0
   -3.8760   -9.3840   -5.2470 H   0  0  0  0  0  0  0  0  0  0  0  0
    0.0710    2.2940   -0.9120 H   0  0  0  0  0  0  0  0  0  0  0  0
    1.4620    1.3980   -0.2560 H   0  0  0  0  0  0  0  0  0  0  0  0
  1  2  1  0  0  0  0
  1 12  1  0  0  0  0
  1 13  1  0  0  0  0
  2  4  1  0  0  0  0
  2  5  2  0  0  0  0
  3  6  1  0  0  0  0
  3  7  2  0  0  0  0
  3 14  1  0  0  0  0
  4  8  1  0  0  0  0
  4 21  1  0  0  0  0
  4 22  1  0  0  0  0
  6 10  2  0  0  0  0
  6 23  1  0  0  0  0
  7  9  1  0  0  0  0
  7 15  1  0  0  0  0
  8 10  1  0  0  0  0
  9 11  2  0  0  0  0
  9 24  1  0  0  0  0
 10 11  1  0  0  0  0
 11 25  1  0  0  0  0
 12 17  1  0  0  0  0
 12 26  1  0  0  0  0
 12 27  1  0  0  0  0
 13 16  1  0  0  0  0
 13 28  1  0  0  0  0
 13 29  1  0  0  0  0
 14 18  2  0  0  0  0
 14 30  1  0  0  0  0
 15 19  2  0  0  0  0
 15 31  1  0  0  0  0
 16 20  1  0  0  0  0
 16 32  1  0  0  0  0
 16 33  1  0  0  0  0
 17 20  1  0  0  0  0
 17 34  1  0  0  0  0
 17 35  1  0  0  0  0
 18 19  1  0  0  0  0
 18 36  1  0  0  0  0
 19 37  1  0  0  0  0
 20 38  1  0  0  0  0
 20 39  1  0  0  0  0
M  END
>  <$CLUSTER>
618

>  <INDEX>
536297

$$$$
Enamine T0502-5232
  MOE2020           3D

 31 31  0  0  0  0  0  0  0  0999 V2000
    0.2890   -0.1570   -0.0100 C   0  0  0  0  0  0  0  0  0  0  0  0
    1.4290    0.0640    0.5820 N   0  0  0  0  0  0  0  0  0  0  0  0
   -0.9180    0.7070    0.0200 C   0  0  0  0  0  0  0  0  0  0  0  0
    0.2900   -1.3880   -0.7650 C   0  0  0  0  0  0  0  0  0  0  0  0
    0.2860   -2.3810   -1.3780 N   0  0  0  0  0  0  0  0  0  0  0  0
    6.6160    4.5070    3.9830 C   0  0  0  0  0  0  0  0  0  0  0  0
    1.4990    1.2030    1.3160 N   0  0  0  0  0  0  0  0  0  0  0  0
    6.5090    2.7210    4.2770 S   0  0  0  0  0  0  0  0  0  0  0  0
   -1.1590    1.5650   -0.8210 O   0  0  0  0  0  0  0  0  0  0  0  0
    5.0030    2.3060    3.3960 C   0  0  0  0  0  0  0  0  0  0  0  0
    2.6700    1.5490    1.9970 C   0  0  0  0  0  0  0  0  0  0  0  0
    6.6160    4.7140    2.6260 F   0  0  0  0  0  0  0  0  0  0  0  0
    5.4550    5.0820    4.4350 F   0  0  0  0  0  0  0  0  0  0  0  0
   -1.7160    0.3870    1.0550 O   0  0  0  0  0  0  0  0  0  0  0  0
    3.8660    3.1110    3.4430 C   0  0  0  0  0  0  0  0  0  0  0  0
    4.9840    1.1250    2.6560 C   0  0  0  0  0  0  0  0  0  0  0  0
    2.7120    2.7340    2.7480 C   0  0  0  0  0  0  0  0  0  0  0  0
    3.8270    0.7520    1.9640 C   0  0  0  0  0  0  0  0  0  0  0  0
   -2.9260    1.1390    1.2000 C   0  0  0  0  0  0  0  0  0  0  0  0
   -3.6660    0.6440    2.4260 C   0  0  0  0  0  0  0  0  0  0  0  0
    7.5020    4.9140    4.4700 H   0  0  0  0  0  0  0  0  0  0  0  0
    0.6930    1.8100    1.3710 H   0  0  0  0  0  0  0  0  0  0  0  0
    3.8760    4.0260    4.0160 H   0  0  0  0  0  0  0  0  0  0  0  0
    5.8620    0.4980    2.6170 H   0  0  0  0  0  0  0  0  0  0  0  0
    1.8370    3.3660    2.7900 H   0  0  0  0  0  0  0  0  0  0  0  0
    3.8230   -0.1650    1.3940 H   0  0  0  0  0  0  0  0  0  0  0  0
   -3.5500    1.0030    0.3160 H   0  0  0  0  0  0  0  0  0  0  0  0
   -2.6880    2.1960    1.3180 H   0  0  0  0  0  0  0  0  0  0  0  0
   -3.9030   -0.4130    2.3050 H   0  0  0  0  0  0  0  0  0  0  0  0
   -4.5890    1.2110    2.5470 H   0  0  0  0  0  0  0  0  0  0  0  0
   -3.0390    0.7780    3.3080 H   0  0  0  0  0  0  0  0  0  0  0  0
  1  2  2  0  0  0  0
  1  3  1  0  0  0  0
  1  4  1  0  0  0  0
  2  7  1  0  0  0  0
  3  9  2  0  0  0  0
  3 14  1  0  0  0  0
  4  5  3  0  0  0  0
  6  8  1  0  0  0  0
  6 12  1  0  0  0  0
  6 13  1  0  0  0  0
  6 21  1  0  0  0  0
  7 11  1  0  0  0  0
  7 22  1  0  0  0  0
  8 10  1  0  0  0  0
 10 15  2  0  0  0  0
 10 16  1  0  0  0  0
 11 17  2  0  0  0  0
 11 18  1  0  0  0  0
 14 19  1  0  0  0  0
 15 17  1  0  0  0  0
 15 23  1  0  0  0  0
 16 18  2  0  0  0  0
 16 24  1  0  0  0  0
 17 25  1  0  0  0  0
 18 26  1  0  0  0  0
 19 20  1  0  0  0  0
 19 27  1  0  0  0  0
 19 28  1  0  0  0  0
 20 29  1  0  0  0  0
 20 30  1  0  0  0  0
 20 31  1  0  0  0  0
M  END
>  <$CLUSTER>
619

>  <INDEX>
407108

$$$$
Enamine T0502-8815
  MOE2020           3D

 39 42  0  0  0  0  0  0  0  0999 V2000
    1.1630    0.6260    0.4250 C   0  0  0  0  0  0  0  0  0  0  0  0
    0.1060    0.2990   -0.3620 C   0  0  0  0  0  0  0  0  0  0  0  0
    2.0730    1.6890    0.2100 C   0  0  0  0  0  0  0  0  0  0  0  0
   -0.5960   -0.8070    0.1570 N   0  0  0  0  0  0  0  0  0  0  0  0
    1.8270    2.8400   -0.3890 N   0  0  0  0  0  0  0  0  0  0  0  0
    1.1500   -0.3630    1.5380 C   0  0  0  0  0  0  0  0  0  0  0  0
    2.9680    3.6150   -0.4320 C   0  0  0  0  0  0  0  0  0  0  0  0
    3.7150    1.4920    0.7170 S   0  0  0  0  0  0  0  0  0  0  0  0
    0.0600   -1.3810    1.3270 C   0  0  0  0  0  0  0  0  0  0  0  0
    4.0930    3.0490    0.1220 C   0  0  0  0  0  0  0  0  0  0  0  0
   -1.8100   -1.3670   -0.2810 C   0  0  0  0  0  0  0  0  0  0  0  0
    2.9320    4.9450   -1.0400 C   0  0  0  0  0  0  0  0  0  0  0  0
   -0.1770    0.9440   -1.5400 N   0  0  0  0  0  0  0  0  0  0  0  0
    1.9100   -0.3600    2.4960 O   0  0  0  0  0  0  0  0  0  0  0  0
    4.0920    5.5680   -1.5260 C   0  0  0  0  0  0  0  0  0  0  0  0
    1.7100    5.6280   -1.1540 C   0  0  0  0  0  0  0  0  0  0  0  0
    2.8120    7.5060   -2.2040 C   0  0  0  0  0  0  0  0  0  0  0  0
    1.6520    6.8990   -1.7310 C   0  0  0  0  0  0  0  0  0  0  0  0
    4.0310    6.8400   -2.1020 C   0  0  0  0  0  0  0  0  0  0  0  0
    2.7270    9.0560   -2.9020 Cl  0  0  0  0  0  0  0  0  0  0  0  0
   -2.8330   -0.5780   -0.8400 C   0  0  0  0  0  0  0  0  0  0  0  0
   -2.0690   -2.7450   -0.1540 C   0  0  0  0  0  0  0  0  0  0  0  0
   -3.2750   -3.3090   -0.5830 C   0  0  0  0  0  0  0  0  0  0  0  0
   -4.0410   -1.1380   -1.2680 C   0  0  0  0  0  0  0  0  0  0  0  0
   -4.2610   -2.5050   -1.1430 C   0  0  0  0  0  0  0  0  0  0  0  0
    0.4650   -2.3710    1.1190 H   0  0  0  0  0  0  0  0  0  0  0  0
   -0.6130   -1.4370    2.1820 H   0  0  0  0  0  0  0  0  0  0  0  0
    5.0650    3.5170    0.1730 H   0  0  0  0  0  0  0  0  0  0  0  0
    0.4140    1.7000   -1.8570 H   0  0  0  0  0  0  0  0  0  0  0  0
   -0.9760    0.6630   -2.0900 H   0  0  0  0  0  0  0  0  0  0  0  0
    5.0420    5.0590   -1.4540 H   0  0  0  0  0  0  0  0  0  0  0  0
    0.8040    5.1650   -0.7910 H   0  0  0  0  0  0  0  0  0  0  0  0
    0.7050    7.4120   -1.8100 H   0  0  0  0  0  0  0  0  0  0  0  0
    4.9320    7.3080   -2.4690 H   0  0  0  0  0  0  0  0  0  0  0  0
   -2.6810    0.4870   -0.9410 H   0  0  0  0  0  0  0  0  0  0  0  0
   -1.3170   -3.3830    0.2860 H   0  0  0  0  0  0  0  0  0  0  0  0
   -3.4400   -4.3710   -0.4790 H   0  0  0  0  0  0  0  0  0  0  0  0
   -4.8050   -0.5070   -1.6970 H   0  0  0  0  0  0  0  0  0  0  0  0
   -5.1910   -2.9390   -1.4790 H   0  0  0  0  0  0  0  0  0  0  0  0
  1  2  2  0  0  0  0
  1  3  1  0  0  0  0
  1  6  1  0  0  0  0
  2  4  1  0  0  0  0
  2 13  1  0  0  0  0
  3  5  2  0  0  0  0
  3  8  1  0  0  0  0
  4  9  1  0  0  0  0
  4 11  1  0  0  0  0
  5  7  1  0  0  0  0
  6  9  1  0  0  0  0
  6 14  2  0  0  0  0
  7 10  2  0  0  0  0
  7 12  1  0  0  0  0
  8 10  1  0  0  0  0
  9 26  1  0  0  0  0
  9 27  1  0  0  0  0
 10 28  1  0  0  0  0
 11 21  1  0  0  0  0
 11 22  2  0  0  0  0
 12 15  1  0  0  0  0
 12 16  2  0  0  0  0
 13 29  1  0  0  0  0
 13 30  1  0  0  0  0
 15 19  2  0  0  0  0
 15 31  1  0  0  0  0
 16 18  1  0  0  0  0
 16 32  1  0  0  0  0
 17 18  2  0  0  0  0
 17 19  1  0  0  0  0
 17 20  1  0  0  0  0
 18 33  1  0  0  0  0
 19 34  1  0  0  0  0
 21 24  2  0  0  0  0
 21 35  1  0  0  0  0
 22 23  1  0  0  0  0
 22 36  1  0  0  0  0
 23 25  2  0  0  0  0
 23 37  1  0  0  0  0
 24 25  1  0  0  0  0
 24 38  1  0  0  0  0
 25 39  1  0  0  0  0
M  END
>  <$CLUSTER>
620

>  <INDEX>
407699

$$$$
Enamine T0502-4984
  MOE2020           3D

 42 45  0  0  0  0  0  0  0  0999 V2000
   -0.4120    0.3060    1.1060 C   0  0  0  0  0  0  0  0  0  0  0  0
   -1.4180    0.9120    1.8830 C   0  0  0  0  0  0  0  0  0  0  0  0
   -0.2270    0.4310   -0.2300 C   0  0  0  0  0  0  0  0  0  0  0  0
    0.9110   -0.2840   -0.6510 N   0  0  0  0  0  0  0  0  0  0  0  0
   -1.7850    2.1830    1.9160 N   0  0  0  0  0  0  0  0  0  0  0  0
   -2.2150    0.1660    2.7280 N   0  0  0  0  0  0  0  0  0  0  0  0
    0.7440   -0.4760    1.6090 C   0  0  0  0  0  0  0  0  0  0  0  0
    1.6650   -0.8390    0.4720 C   0  0  0  0  0  0  0  0  0  0  0  0
   -3.0770    1.0250    3.3590 C   0  0  0  0  0  0  0  0  0  0  0  0
   -2.7970    2.2610    2.8340 C   0  0  0  0  0  0  0  0  0  0  0  0
    1.3590   -0.5380   -1.9610 C   0  0  0  0  0  0  0  0  0  0  0  0
   -1.0410    1.1970   -1.0250 N   0  0  0  0  0  0  0  0  0  0  0  0
    0.9410   -0.7560    2.7820 O   0  0  0  0  0  0  0  0  0  0  0  0
    0.4630   -0.6990   -3.0340 C   0  0  0  0  0  0  0  0  0  0  0  0
   -2.2070   -1.2630    2.9430 C   0  0  0  0  0  0  0  0  0  0  0  0
    0.9120   -0.9570   -4.3330 C   0  0  0  0  0  0  0  0  0  0  0  0
    2.7300   -0.6720   -2.2530 C   0  0  0  0  0  0  0  0  0  0  0  0
   -4.1130    0.8430    4.3110 C   0  0  0  0  0  0  0  0  0  0  0  0
   -3.4910    3.4100    3.2650 C   0  0  0  0  0  0  0  0  0  0  0  0
    3.1820   -0.9290   -3.5520 C   0  0  0  0  0  0  0  0  0  0  0  0
    2.2730   -1.0680   -4.5930 C   0  0  0  0  0  0  0  0  0  0  0  0
   -0.0770   -1.1150   -5.4440 C   0  0  0  0  0  0  0  0  0  0  0  0
   -4.8080    1.9830    4.7300 C   0  0  0  0  0  0  0  0  0  0  0  0
   -4.5050    3.2440    4.2170 C   0  0  0  0  0  0  0  0  0  0  0  0
    2.6420   -0.3670    0.5760 H   0  0  0  0  0  0  0  0  0  0  0  0
    1.7900   -1.9180    0.3810 H   0  0  0  0  0  0  0  0  0  0  0  0
   -1.8180    1.6980   -0.6180 H   0  0  0  0  0  0  0  0  0  0  0  0
   -0.8640    1.2600   -2.0170 H   0  0  0  0  0  0  0  0  0  0  0  0
   -0.5980   -0.6210   -2.8500 H   0  0  0  0  0  0  0  0  0  0  0  0
   -1.4320   -1.7190    2.3270 H   0  0  0  0  0  0  0  0  0  0  0  0
   -3.1780   -1.6770    2.6710 H   0  0  0  0  0  0  0  0  0  0  0  0
   -2.0050   -1.4710    3.9940 H   0  0  0  0  0  0  0  0  0  0  0  0
    3.4510   -0.5740   -1.4540 H   0  0  0  0  0  0  0  0  0  0  0  0
   -4.3560   -0.1360    4.6970 H   0  0  0  0  0  0  0  0  0  0  0  0
   -3.2490    4.3870    2.8740 H   0  0  0  0  0  0  0  0  0  0  0  0
    4.2410   -1.0200   -3.7460 H   0  0  0  0  0  0  0  0  0  0  0  0
    2.6210   -1.2610   -5.5970 H   0  0  0  0  0  0  0  0  0  0  0  0
   -1.0870   -0.9960   -5.0510 H   0  0  0  0  0  0  0  0  0  0  0  0
    0.0270   -2.1070   -5.8850 H   0  0  0  0  0  0  0  0  0  0  0  0
    0.1080   -0.3580   -6.2060 H   0  0  0  0  0  0  0  0  0  0  0  0
   -5.5940    1.8850    5.4640 H   0  0  0  0  0  0  0  0  0  0  0  0
   -5.0600    4.1050    4.5590 H   0  0  0  0  0  0  0  0  0  0  0  0
  1  2  1  0  0  0  0
  1  3  2  0  0  0  0
  1  7  1  0  0  0  0
  2  5  2  0  0  0  0
  2  6  1  0  0  0  0
  3  4  1  0  0  0  0
  3 12  1  0  0  0  0
  4  8  1  0  0  0  0
  4 11  1  0  0  0  0
  5 10  1  0  0  0  0
  6  9  1  0  0  0  0
  6 15  1  0  0  0  0
  7  8  1  0  0  0  0
  7 13  2  0  0  0  0
  8 25  1  0  0  0  0
  8 26  1  0  0  0  0
  9 10  2  0  0  0  0
  9 18  1  0  0  0  0
 10 19  1  0  0  0  0
 11 14  2  0  0  0  0
 11 17  1  0  0  0  0
 12 27  1  0  0  0  0
 12 28  1  0  0  0  0
 14 16  1  0  0  0  0
 14 29  1  0  0  0  0
 15 30  1  0  0  0  0
 15 31  1  0  0  0  0
 15 32  1  0  0  0  0
 16 21  2  0  0  0  0
 16 22  1  0  0  0  0
 17 20  2  0  0  0  0
 17 33  1  0  0  0  0
 18 23  2  0  0  0  0
 18 34  1  0  0  0  0
 19 24  2  0  0  0  0
 19 35  1  0  0  0  0
 20 21  1  0  0  0  0
 20 36  1  0  0  0  0
 21 37  1  0  0  0  0
 22 38  1  0  0  0  0
 22 39  1  0  0  0  0
 22 40  1  0  0  0  0
 23 24  1  0  0  0  0
 23 41  1  0  0  0  0
 24 42  1  0  0  0  0
M  END
>  <$CLUSTER>
621

>  <INDEX>
407063

$$$$
InterBioScreen STOCK4S-78232
  MOE2020           3D

 47 50  0  0  0  0  0  0  0  0999 V2000
   -0.4040    1.1920    0.2320 C   0  0  0  0  0  0  0  0  0  0  0  0
   -0.5210    2.4950    0.5310 N   0  0  0  0  0  0  0  0  0  0  0  0
    0.9360    0.8780   -0.1580 C   0  0  0  0  0  0  0  0  0  0  0  0
   -1.5600    0.3030    0.3200 C   0  0  0  0  0  0  0  0  0  0  0  0
    0.7060    2.9930    0.3270 N   0  0  0  0  0  0  0  0  0  0  0  0
    1.6290    2.0710   -0.0790 C   0  0  0  0  0  0  0  0  0  0  0  0
   -2.3780    0.2460    1.4590 C   0  0  0  0  0  0  0  0  0  0  0  0
   -1.8720   -0.5240   -0.7710 C   0  0  0  0  0  0  0  0  0  0  0  0
   -3.4730   -0.6200    1.5100 C   0  0  0  0  0  0  0  0  0  0  0  0
    1.5520   -0.3810   -0.5300 C   0  0  0  0  0  0  0  0  0  0  0  0
   -3.7660   -1.4390    0.4210 C   0  0  0  0  0  0  0  0  0  0  0  0
   -4.8120   -2.3270    0.3490 O   0  0  0  0  0  0  0  0  0  0  0  0
   -2.9670   -1.3900   -0.7190 C   0  0  0  0  0  0  0  0  0  0  0  0
   -2.1580    1.0060    2.5780 O   0  0  0  0  0  0  0  0  0  0  0  0
   -5.6670   -2.4190    1.4880 C   0  0  0  0  0  0  0  0  0  0  0  0
   -6.7380   -3.4530    1.1860 C   0  0  0  0  0  0  0  0  0  0  0  0
    3.0430    2.4420   -0.3250 C   0  0  0  0  0  0  0  0  0  0  0  0
    2.1810   -0.5310   -1.7730 C   0  0  0  0  0  0  0  0  0  0  0  0
    1.5030   -1.4700    0.3510 C   0  0  0  0  0  0  0  0  0  0  0  0
   -7.9350   -3.0680    0.5760 C   0  0  0  0  0  0  0  0  0  0  0  0
   -6.5250   -4.7990    1.4960 C   0  0  0  0  0  0  0  0  0  0  0  0
    2.0810   -2.6890   -0.0070 C   0  0  0  0  0  0  0  0  0  0  0  0
    2.7580   -1.7520   -2.1250 C   0  0  0  0  0  0  0  0  0  0  0  0
   -7.5050   -5.7500    1.2090 C   0  0  0  0  0  0  0  0  0  0  0  0
   -8.9140   -4.0200    0.2890 C   0  0  0  0  0  0  0  0  0  0  0  0
    2.7090   -2.8300   -1.2430 C   0  0  0  0  0  0  0  0  0  0  0  0
   -8.7010   -5.3600    0.6070 C   0  0  0  0  0  0  0  0  0  0  0  0
    0.9300    3.9690    0.4620 H   0  0  0  0  0  0  0  0  0  0  0  0
   -1.2590   -0.4900   -1.6600 H   0  0  0  0  0  0  0  0  0  0  0  0
   -4.0930   -0.6550    2.3940 H   0  0  0  0  0  0  0  0  0  0  0  0
   -3.1940   -2.0230   -1.5640 H   0  0  0  0  0  0  0  0  0  0  0  0
   -2.7840    0.8670    3.2930 H   0  0  0  0  0  0  0  0  0  0  0  0
   -6.1300   -1.4520    1.6820 H   0  0  0  0  0  0  0  0  0  0  0  0
   -5.0900   -2.7270    2.3600 H   0  0  0  0  0  0  0  0  0  0  0  0
    3.6010    1.5600   -0.6390 H   0  0  0  0  0  0  0  0  0  0  0  0
    3.4790    2.8400    0.5910 H   0  0  0  0  0  0  0  0  0  0  0  0
    3.0890    3.1990   -1.1080 H   0  0  0  0  0  0  0  0  0  0  0  0
    2.2190    0.3010   -2.4610 H   0  0  0  0  0  0  0  0  0  0  0  0
    1.0170   -1.3660    1.3100 H   0  0  0  0  0  0  0  0  0  0  0  0
   -8.1030   -2.0310    0.3260 H   0  0  0  0  0  0  0  0  0  0  0  0
   -5.5980   -5.1040    1.9590 H   0  0  0  0  0  0  0  0  0  0  0  0
    2.0410   -3.5250    0.6760 H   0  0  0  0  0  0  0  0  0  0  0  0
    3.2440   -1.8620   -3.0830 H   0  0  0  0  0  0  0  0  0  0  0  0
   -7.3370   -6.7890    1.4530 H   0  0  0  0  0  0  0  0  0  0  0  0
   -9.8390   -3.7180   -0.1800 H   0  0  0  0  0  0  0  0  0  0  0  0
    3.1570   -3.7740   -1.5170 H   0  0  0  0  0  0  0  0  0  0  0  0
   -9.4610   -6.0950    0.3880 H   0  0  0  0  0  0  0  0  0  0  0  0
  1  2  2  0  0  0  0
  1  3  1  0  0  0  0
  1  4  1  0  0  0  0
  2  5  1  0  0  0  0
  3  6  2  0  0  0  0
  3 10  1  0  0  0  0
  4  7  2  0  0  0  0
  4  8  1  0  0  0  0
  5  6  1  0  0  0  0
  5 28  1  0  0  0  0
  6 17  1  0  0  0  0
  7  9  1  0  0  0  0
  7 14  1  0  0  0  0
  8 13  2  0  0  0  0
  8 29  1  0  0  0  0
  9 11  2  0  0  0  0
  9 30  1  0  0  0  0
 10 18  1  0  0  0  0
 10 19  2  0  0  0  0
 11 12  1  0  0  0  0
 11 13  1  0  0  0  0
 12 15  1  0  0  0  0
 13 31  1  0  0  0  0
 14 32  1  0  0  0  0
 15 16  1  0  0  0  0
 15 33  1  0  0  0  0
 15 34  1  0  0  0  0
 16 20  1  0  0  0  0
 16 21  2  0  0  0  0
 17 35  1  0  0  0  0
 17 36  1  0  0  0  0
 17 37  1  0  0  0  0
 18 23  2  0  0  0  0
 18 38  1  0  0  0  0
 19 22  1  0  0  0  0
 19 39  1  0  0  0  0
 20 25  2  0  0  0  0
 20 40  1  0  0  0  0
 21 24  1  0  0  0  0
 21 41  1  0  0  0  0
 22 26  2  0  0  0  0
 22 42  1  0  0  0  0
 23 26  1  0  0  0  0
 23 43  1  0  0  0  0
 24 27  2  0  0  0  0
 24 44  1  0  0  0  0
 25 27  1  0  0  0  0
 25 45  1  0  0  0  0
 26 46  1  0  0  0  0
 27 47  1  0  0  0  0
M  END
>  <$CLUSTER>
622

>  <INDEX>
360782

$$$$
Enamine T0503-4856
  MOE2020           3D

 35 36  0  0  0  0  0  0  0  0999 V2000
   -0.5940    0.0360   -1.9000 C   0  0  0  0  0  0  0  0  0  0  0  0
    0.6720    0.2560    0.0990 N   0  0  0  0  0  0  0  0  0  0  0  0
   -0.7910   -0.3880   -3.3250 C   0  0  0  0  0  0  0  0  0  0  0  0
    0.5410   -0.1550   -1.2180 C   0  0  0  0  0  0  0  0  0  0  0  0
   -0.3830    0.8830    0.7850 C   0  0  0  0  0  0  0  0  0  0  0  0
   -1.7100    0.6810   -1.2600 C   0  0  0  0  0  0  0  0  0  0  0  0
   -1.6360    1.0910    0.0090 C   0  0  0  0  0  0  0  0  0  0  0  0
    1.9770   -1.3630    1.4350 C   0  0  0  0  0  0  0  0  0  0  0  0
    1.9430    0.0110    0.7850 C   0  0  0  0  0  0  0  0  0  0  0  0
    1.6790   -2.5280    3.5690 N   0  0  0  0  0  0  0  0  0  0  0  0
    1.4720   -5.9680    6.0590 C   0  0  0  0  0  0  0  0  0  0  0  0
    0.9330   -5.8080    7.3360 C   0  0  0  0  0  0  0  0  0  0  0  0
    1.7050   -1.3710    2.7700 N   0  0  0  0  0  0  0  0  0  0  0  0
   -0.3400    1.2570    1.9540 O   0  0  0  0  0  0  0  0  0  0  0  0
    1.5650   -4.8730    5.1970 C   0  0  0  0  0  0  0  0  0  0  0  0
    2.2050   -2.4050    0.8150 O   0  0  0  0  0  0  0  0  0  0  0  0
   -1.0880    0.6730   -4.1260 F   0  0  0  0  0  0  0  0  0  0  0  0
   -1.8220   -1.2690   -3.4460 F   0  0  0  0  0  0  0  0  0  0  0  0
    0.2990   -0.9930   -3.8740 F   0  0  0  0  0  0  0  0  0  0  0  0
    0.4860   -4.5530    7.7550 C   0  0  0  0  0  0  0  0  0  0  0  0
    1.2040   -2.4250    4.7160 C   0  0  0  0  0  0  0  0  0  0  0  0
    1.1250   -3.6300    5.6040 C   0  0  0  0  0  0  0  0  0  0  0  0
    2.0130   -7.5040    5.5640 Cl  0  0  0  0  0  0  0  0  0  0  0  0
    0.8250   -7.1530    8.3740 Cl  0  0  0  0  0  0  0  0  0  0  0  0
    0.5780   -3.4560    6.8960 C   0  0  0  0  0  0  0  0  0  0  0  0
    1.3740   -0.6400   -1.7050 H   0  0  0  0  0  0  0  0  0  0  0  0
   -2.6230    0.8360   -1.8150 H   0  0  0  0  0  0  0  0  0  0  0  0
   -2.4850    1.5730    0.4720 H   0  0  0  0  0  0  0  0  0  0  0  0
    2.0800    0.7700    1.5560 H   0  0  0  0  0  0  0  0  0  0  0  0
    2.7540    0.0790    0.0600 H   0  0  0  0  0  0  0  0  0  0  0  0
    1.5090   -0.4860    3.2160 H   0  0  0  0  0  0  0  0  0  0  0  0
    1.9820   -4.9990    4.2090 H   0  0  0  0  0  0  0  0  0  0  0  0
    0.0690   -4.4310    8.7440 H   0  0  0  0  0  0  0  0  0  0  0  0
    0.8490   -1.4680    5.0700 H   0  0  0  0  0  0  0  0  0  0  0  0
    0.2340   -2.4830    7.2160 H   0  0  0  0  0  0  0  0  0  0  0  0
  1  3  1  0  0  0  0
  1  4  2  0  0  0  0
  1  6  1  0  0  0  0
  2  4  1  0  0  0  0
  2  5  1  0  0  0  0
  2  9  1  0  0  0  0
  3 17  1  0  0  0  0
  3 18  1  0  0  0  0
  3 19  1  0  0  0  0
  4 26  1  0  0  0  0
  5  7  1  0  0  0  0
  5 14  2  0  0  0  0
  6  7  2  0  0  0  0
  6 27  1  0  0  0  0
  7 28  1  0  0  0  0
  8  9  1  0  0  0  0
  8 13  1  0  0  0  0
  8 16  2  0  0  0  0
  9 29  1  0  0  0  0
  9 30  1  0  0  0  0
 10 13  1  0  0  0  0
 10 21  2  0  0  0  0
 11 12  2  0  0  0  0
 11 15  1  0  0  0  0
 11 23  1  0  0  0  0
 12 20  1  0  0  0  0
 12 24  1  0  0  0  0
 13 31  1  0  0  0  0
 15 22  2  0  0  0  0
 15 32  1  0  0  0  0
 20 25  2  0  0  0  0
 20 33  1  0  0  0  0
 21 22  1  0  0  0  0
 21 34  1  0  0  0  0
 22 25  1  0  0  0  0
 25 35  1  0  0  0  0
M  END
>  <$CLUSTER>
623

>  <INDEX>
408854

$$$$
Enamine T0503-7280
  MOE2020           3D

 44 47  0  0  0  0  0  0  0  0999 V2000
   -1.2530    0.2350    0.0100 N   0  0  0  0  0  0  0  0  0  0  0  0
   -0.5820   -0.4910   -0.9290 C   0  0  0  0  0  0  0  0  0  0  0  0
   -6.5670    1.1530   -5.7420 N   0  3  0  0  0  0  0  0  0  0  0  0
   -0.6570    1.0100    0.8670 C   0  0  0  0  0  0  0  0  0  0  0  0
   -6.1310    1.1620   -4.3870 C   0  0  0  0  0  0  0  0  0  0  0  0
   -0.9890   -0.5590   -2.1560 N   0  0  0  0  0  0  0  0  0  0  0  0
    0.7080    1.3340    1.0140 N   0  0  0  0  0  0  0  0  0  0  0  0
    0.5750   -1.2970   -0.5180 C   0  0  0  0  0  0  0  0  0  0  0  0
   -2.0850    0.2020   -2.4720 C   0  0  0  0  0  0  0  0  0  0  0  0
    1.7010   -0.6470   -0.0090 C   0  0  0  0  0  0  0  0  0  0  0  0
    1.7120    0.8550    0.0630 C   0  0  0  0  0  0  0  0  0  0  0  0
   -6.7530    1.9630   -3.4330 C   0  0  0  0  0  0  0  0  0  0  0  0
   -5.0530    0.3530   -4.0250 C   0  0  0  0  0  0  0  0  0  0  0  0
   -6.2680    2.1300   -6.4480 O   0  5  0  0  0  0  0  0  0  0  0  0
   -7.1950    0.1540   -6.1290 O   0  0  0  0  0  0  0  0  0  0  0  0
    1.1010    2.1520    2.0760 C   0  0  0  0  0  0  0  0  0  0  0  0
   -1.6380    1.6330    1.8360 C   0  0  0  0  0  0  0  0  0  0  0  0
   -2.0020    1.3330   -2.9470 O   0  0  0  0  0  0  0  0  0  0  0  0
   -4.5990    0.3260   -2.7000 C   0  0  0  0  0  0  0  0  0  0  0  0
    0.2430    2.6860    2.9570 C   0  0  0  0  0  0  0  0  0  0  0  0
   -1.1700    2.4190    2.8130 C   0  0  0  0  0  0  0  0  0  0  0  0
   -3.4090   -0.5060   -2.3200 C   0  0  0  0  0  0  0  0  0  0  0  0
   -6.2980    1.9590   -2.1170 C   0  0  0  0  0  0  0  0  0  0  0  0
   -8.1100    2.9780   -3.8140 Cl  0  0  0  0  0  0  0  0  0  0  0  0
   -5.2190    1.1520   -1.7530 C   0  0  0  0  0  0  0  0  0  0  0  0
    2.8010   -1.4210    0.3900 C   0  0  0  0  0  0  0  0  0  0  0  0
    0.5390   -2.6840   -0.6670 C   0  0  0  0  0  0  0  0  0  0  0  0
    2.7660   -2.8120    0.2620 C   0  0  0  0  0  0  0  0  0  0  0  0
    1.6400   -3.4420   -0.2700 C   0  0  0  0  0  0  0  0  0  0  0  0
    2.6980    1.1910    0.3840 H   0  0  0  0  0  0  0  0  0  0  0  0
    1.4930    1.2620   -0.9240 H   0  0  0  0  0  0  0  0  0  0  0  0
   -4.5650   -0.2560   -4.7710 H   0  0  0  0  0  0  0  0  0  0  0  0
    2.1530    2.3660    2.1940 H   0  0  0  0  0  0  0  0  0  0  0  0
   -2.6980    1.4470    1.7410 H   0  0  0  0  0  0  0  0  0  0  0  0
    0.6030    3.3070    3.7640 H   0  0  0  0  0  0  0  0  0  0  0  0
   -1.8650    2.8640    3.5100 H   0  0  0  0  0  0  0  0  0  0  0  0
   -3.5190   -0.8040   -1.2770 H   0  0  0  0  0  0  0  0  0  0  0  0
   -3.3970   -1.3940   -2.9520 H   0  0  0  0  0  0  0  0  0  0  0  0
   -6.7800    2.5810   -1.3770 H   0  0  0  0  0  0  0  0  0  0  0  0
   -4.8600    1.1640   -0.7350 H   0  0  0  0  0  0  0  0  0  0  0  0
    3.6780   -0.9400    0.7980 H   0  0  0  0  0  0  0  0  0  0  0  0
   -0.3330   -3.1650   -1.0850 H   0  0  0  0  0  0  0  0  0  0  0  0
    3.6140   -3.4020    0.5760 H   0  0  0  0  0  0  0  0  0  0  0  0
    1.6210   -4.5170   -0.3740 H   0  0  0  0  0  0  0  0  0  0  0  0
  1  2  1  0  0  0  0
  1  4  2  0  0  0  0
  2  6  2  0  0  0  0
  2  8  1  0  0  0  0
  3  5  1  0  0  0  0
  3 14  1  0  0  0  0
  3 15  2  0  0  0  0
  4  7  1  0  0  0  0
  4 17  1  0  0  0  0
  5 12  1  0  0  0  0
  5 13  2  0  0  0  0
  6  9  1  0  0  0  0
  7 11  1  0  0  0  0
  7 16  1  0  0  0  0
  8 10  2  0  0  0  0
  8 27  1  0  0  0  0
  9 18  2  0  0  0  0
  9 22  1  0  0  0  0
 10 11  1  0  0  0  0
 10 26  1  0  0  0  0
 11 30  1  0  0  0  0
 11 31  1  0  0  0  0
 12 23  2  0  0  0  0
 12 24  1  0  0  0  0
 13 19  1  0  0  0  0
 13 32  1  0  0  0  0
 16 20  2  0  0  0  0
 16 33  1  0  0  0  0
 17 21  2  0  0  0  0
 17 34  1  0  0  0  0
 19 22  1  0  0  0  0
 19 25  2  0  0  0  0
 20 21  1  0  0  0  0
 20 35  1  0  0  0  0
 21 36  1  0  0  0  0
 22 37  1  0  0  0  0
 22 38  1  0  0  0  0
 23 25  1  0  0  0  0
 23 39  1  0  0  0  0
 25 40  1  0  0  0  0
 26 28  2  0  0  0  0
 26 41  1  0  0  0  0
 27 29  2  0  0  0  0
 27 42  1  0  0  0  0
 28 29  1  0  0  0  0
 28 43  1  0  0  0  0
 29 44  1  0  0  0  0
M  CHG  1   3   1
M  CHG  1  14  -1
M  END
>  <$CLUSTER>
624

>  <INDEX>
409218

$$$$
Enamine T0503-7526
  MOE2020           3D

 38 40  0  0  0  0  0  0  0  0999 V2000
    1.3650   -0.6690    1.0140 N   0  0  0  0  0  0  0  0  0  0  0  0
    1.3960    0.7210    1.0230 C   0  0  0  0  0  0  0  0  0  0  0  0
    0.4200    1.3730    0.2960 N   0  0  0  0  0  0  0  0  0  0  0  0
   -0.5940   -0.7110   -0.4320 C   0  0  0  0  0  0  0  0  0  0  0  0
   -0.5680    0.6790   -0.4260 C   0  0  0  0  0  0  0  0  0  0  0  0
    0.4320   -1.4400    0.3330 C   0  0  0  0  0  0  0  0  0  0  0  0
   -1.5260   -1.4470   -1.1120 N   0  0  0  0  0  0  0  0  0  0  0  0
   -1.5010    1.3930   -1.1220 N   0  0  0  0  0  0  0  0  0  0  0  0
   -2.4450   -0.7190   -1.7970 C   0  0  0  0  0  0  0  0  0  0  0  0
   -4.3360   -0.8690   -4.5960 C   0  0  0  0  0  0  0  0  0  0  0  0
   -4.3900   -0.8180   -3.2170 N   0  0  0  0  0  0  0  0  0  0  0  0
    2.2550    1.3370    1.6510 O   0  0  0  0  0  0  0  0  0  0  0  0
   -3.4170   -1.4580   -2.5070 N   0  0  0  0  0  0  0  0  0  0  0  0
    0.4230   -2.6710    0.3380 O   0  0  0  0  0  0  0  0  0  0  0  0
   -5.4610   -0.1040   -5.2410 C   0  0  0  0  0  0  0  0  0  0  0  0
   -2.4330    0.6720   -1.8020 C   0  0  0  0  0  0  0  0  0  0  0  0
   -3.4730   -1.4350   -5.2620 O   0  0  0  0  0  0  0  0  0  0  0  0
    2.3990   -1.3510    1.7840 C   0  0  0  0  0  0  0  0  0  0  0  0
    0.3780    2.8320    0.2510 C   0  0  0  0  0  0  0  0  0  0  0  0
   -6.1120    0.9560   -4.6670 C   0  0  0  0  0  0  0  0  0  0  0  0
   -5.8010   -0.5120   -6.5650 C   0  0  0  0  0  0  0  0  0  0  0  0
   -7.4910    1.2140   -6.6390 C   0  0  0  0  0  0  0  0  0  0  0  0
   -6.8240    0.1520   -7.2450 C   0  0  0  0  0  0  0  0  0  0  0  0
   -7.1330    1.6170   -5.3530 C   0  0  0  0  0  0  0  0  0  0  0  0
   -8.8530    2.1030   -7.5220 Br  0  0  0  0  0  0  0  0  0  0  0  0
   -5.1310   -0.3190   -2.7460 H   0  0  0  0  0  0  0  0  0  0  0  0
   -3.3910   -2.4680   -2.4890 H   0  0  0  0  0  0  0  0  0  0  0  0
   -3.1900    1.1980   -2.3650 H   0  0  0  0  0  0  0  0  0  0  0  0
    3.0480   -0.6130    2.2550 H   0  0  0  0  0  0  0  0  0  0  0  0
    2.9900   -1.9820    1.1200 H   0  0  0  0  0  0  0  0  0  0  0  0
    1.9330   -1.9680    2.5520 H   0  0  0  0  0  0  0  0  0  0  0  0
    1.1940    3.2380    0.8490 H   0  0  0  0  0  0  0  0  0  0  0  0
   -0.5740    3.1810    0.6510 H   0  0  0  0  0  0  0  0  0  0  0  0
    0.4830    3.1670   -0.7810 H   0  0  0  0  0  0  0  0  0  0  0  0
   -5.8330    1.2830   -3.6760 H   0  0  0  0  0  0  0  0  0  0  0  0
   -5.2720   -1.3270   -7.0370 H   0  0  0  0  0  0  0  0  0  0  0  0
   -7.0980   -0.1580   -8.2420 H   0  0  0  0  0  0  0  0  0  0  0  0
   -7.6470    2.4440   -4.8860 H   0  0  0  0  0  0  0  0  0  0  0  0
  1  2  1  0  0  0  0
  1  6  1  0  0  0  0
  1 18  1  0  0  0  0
  2  3  1  0  0  0  0
  2 12  2  0  0  0  0
  3  5  1  0  0  0  0
  3 19  1  0  0  0  0
  4  5  2  0  0  0  0
  4  6  1  0  0  0  0
  4  7  1  0  0  0  0
  5  8  1  0  0  0  0
  6 14  2  0  0  0  0
  7  9  2  0  0  0  0
  8 16  2  0  0  0  0
  9 13  1  0  0  0  0
  9 16  1  0  0  0  0
 10 11  1  0  0  0  0
 10 15  1  0  0  0  0
 10 17  2  0  0  0  0
 11 13  1  0  0  0  0
 11 26  1  0  0  0  0
 13 27  1  0  0  0  0
 15 20  1  0  0  0  0
 15 21  2  0  0  0  0
 16 28  1  0  0  0  0
 18 29  1  0  0  0  0
 18 30  1  0  0  0  0
 18 31  1  0  0  0  0
 19 32  1  0  0  0  0
 19 33  1  0  0  0  0
 19 34  1  0  0  0  0
 20 24  2  0  0  0  0
 20 35  1  0  0  0  0
 21 23  1  0  0  0  0
 21 36  1  0  0  0  0
 22 23  2  0  0  0  0
 22 24  1  0  0  0  0
 22 25  1  0  0  0  0
 23 37  1  0  0  0  0
 24 38  1  0  0  0  0
M  END
>  <$CLUSTER>
625

>  <INDEX>
409256

$$$$
Enamine T0503-9700
  MOE2020           3D

 43 45  0  0  0  0  0  0  0  0999 V2000
   -5.9720    0.5500   -2.6220 N   0  0  0  0  0  0  0  0  0  0  0  0
   -5.1460    1.5820   -2.9750 C   0  0  0  0  0  0  0  0  0  0  0  0
   -4.0560    0.1650   -1.6450 C   0  0  0  0  0  0  0  0  0  0  0  0
   -5.3060   -0.3280   -1.8010 C   0  0  0  0  0  0  0  0  0  0  0  0
    0.8240    0.9250   -0.2860 N   0  0  0  0  0  0  0  0  0  0  0  0
   -3.9270    1.3660   -2.3730 C   0  0  0  0  0  0  0  0  0  0  0  0
    0.3700   -0.2220    0.2840 C   0  0  0  0  0  0  0  0  0  0  0  0
    2.1050    1.2770   -0.0270 C   0  0  0  0  0  0  0  0  0  0  0  0
    1.1370   -1.0050    1.0810 N   0  0  0  0  0  0  0  0  0  0  0  0
    2.9540    0.5420    0.7700 C   0  0  0  0  0  0  0  0  0  0  0  0
   -1.8080    0.0540   -0.7210 N   0  0  0  0  0  0  0  0  0  0  0  0
    2.4090   -0.6030    1.3040 C   0  0  0  0  0  0  0  0  0  0  0  0
   -7.3730    0.4750   -3.0710 C   0  0  0  0  0  0  0  0  0  0  0  0
   -2.9860   -0.4830   -0.8200 C   0  0  0  0  0  0  0  0  0  0  0  0
   -0.9470   -0.6500    0.0610 N   0  0  0  0  0  0  0  0  0  0  0  0
    2.5540    2.4410   -0.6100 O   0  0  0  0  0  0  0  0  0  0  0  0
   -5.4580    2.7980   -3.8110 C   0  0  0  0  0  0  0  0  0  0  0  0
   -5.9730   -1.5430   -1.2680 C   0  0  0  0  0  0  0  0  0  0  0  0
    3.2700   -1.5090    2.2160 C   0  0  0  0  0  0  0  0  0  0  0  0
   -7.7110    0.7200   -4.4070 C   0  0  0  0  0  0  0  0  0  0  0  0
   -8.3760    0.1240   -2.1580 C   0  0  0  0  0  0  0  0  0  0  0  0
   -9.7020    0.0190   -2.5820 C   0  0  0  0  0  0  0  0  0  0  0  0
   -9.0390    0.6110   -4.8240 C   0  0  0  0  0  0  0  0  0  0  0  0
  -10.0340    0.2620   -3.9130 C   0  0  0  0  0  0  0  0  0  0  0  0
   -3.0490    1.9900   -2.4440 H   0  0  0  0  0  0  0  0  0  0  0  0
    3.9730    0.8420    0.9620 H   0  0  0  0  0  0  0  0  0  0  0  0
   -3.1970   -1.4070   -0.3020 H   0  0  0  0  0  0  0  0  0  0  0  0
   -1.2650   -1.5060    0.4940 H   0  0  0  0  0  0  0  0  0  0  0  0
    3.4650    2.6690   -0.4120 H   0  0  0  0  0  0  0  0  0  0  0  0
   -6.4840    2.7360   -4.1740 H   0  0  0  0  0  0  0  0  0  0  0  0
   -4.7740    2.8410   -4.6590 H   0  0  0  0  0  0  0  0  0  0  0  0
   -5.3410    3.6960   -3.2040 H   0  0  0  0  0  0  0  0  0  0  0  0
   -7.0000   -1.5830   -1.6320 H   0  0  0  0  0  0  0  0  0  0  0  0
   -5.9750   -1.5080   -0.1790 H   0  0  0  0  0  0  0  0  0  0  0  0
   -5.4340   -2.4300   -1.6020 H   0  0  0  0  0  0  0  0  0  0  0  0
    2.6770   -2.3630    2.5440 H   0  0  0  0  0  0  0  0  0  0  0  0
    3.6000   -0.9410    3.0860 H   0  0  0  0  0  0  0  0  0  0  0  0
    4.1390   -1.8620    1.6610 H   0  0  0  0  0  0  0  0  0  0  0  0
   -6.9440    0.9940   -5.1160 H   0  0  0  0  0  0  0  0  0  0  0  0
   -8.1230   -0.0660   -1.1250 H   0  0  0  0  0  0  0  0  0  0  0  0
  -10.4730   -0.2520   -1.8760 H   0  0  0  0  0  0  0  0  0  0  0  0
   -9.2960    0.7980   -5.8560 H   0  0  0  0  0  0  0  0  0  0  0  0
  -11.0610    0.1800   -4.2380 H   0  0  0  0  0  0  0  0  0  0  0  0
  1  2  1  0  0  0  0
  1  4  1  0  0  0  0
  1 13  1  0  0  0  0
  2  6  2  0  0  0  0
  2 17  1  0  0  0  0
  3  4  2  0  0  0  0
  3  6  1  0  0  0  0
  3 14  1  0  0  0  0
  4 18  1  0  0  0  0
  5  7  2  0  0  0  0
  5  8  1  0  0  0  0
  6 25  1  0  0  0  0
  7  9  1  0  0  0  0
  7 15  1  0  0  0  0
  8 10  2  0  0  0  0
  8 16  1  0  0  0  0
  9 12  2  0  0  0  0
 10 12  1  0  0  0  0
 10 26  1  0  0  0  0
 11 14  2  0  0  0  0
 11 15  1  0  0  0  0
 12 19  1  0  0  0  0
 13 20  1  0  0  0  0
 13 21  2  0  0  0  0
 14 27  1  0  0  0  0
 15 28  1  0  0  0  0
 16 29  1  0  0  0  0
 17 30  1  0  0  0  0
 17 31  1  0  0  0  0
 17 32  1  0  0  0  0
 18 33  1  0  0  0  0
 18 34  1  0  0  0  0
 18 35  1  0  0  0  0
 19 36  1  0  0  0  0
 19 37  1  0  0  0  0
 19 38  1  0  0  0  0
 20 23  2  0  0  0  0
 20 39  1  0  0  0  0
 21 22  1  0  0  0  0
 21 40  1  0  0  0  0
 22 24  2  0  0  0  0
 22 41  1  0  0  0  0
 23 24  1  0  0  0  0
 23 42  1  0  0  0  0
 24 43  1  0  0  0  0
M  END
>  <$CLUSTER>
626

>  <INDEX>
409469

$$$$
Labotest LT01905658
  MOE2020           3D

 55 57  0  0  0  0  0  0  0  0999 V2000
   -0.5790    0.1450    0.1350 N   0  0  0  0  0  0  0  0  0  0  0  0
   -1.4740    1.5620   -1.5690 C   0  0  0  0  0  0  0  0  0  0  0  0
   -0.8670    3.7820   -2.5000 N   0  0  0  0  0  0  0  0  0  0  0  0
   -1.3710    6.6390   -3.1430 N   0  0  0  0  0  0  0  0  0  0  0  0
   -0.3260    0.8830   -0.9750 N   0  0  0  0  0  0  0  0  0  0  0  0
    0.4150   -0.5610    0.5970 C   0  0  0  0  0  0  0  0  0  0  0  0
    0.1590   -1.4260    1.8090 C   0  0  0  0  0  0  0  0  0  0  0  0
   -1.0380    2.3480   -2.8040 C   0  0  0  0  0  0  0  0  0  0  0  0
   -2.6120    1.5400   -1.1870 O   0  0  0  0  0  0  0  0  0  0  0  0
   -1.1740    8.0680   -2.8630 C   0  0  0  0  0  0  0  0  0  0  0  0
   -1.1580   -1.6260    2.2450 C   0  0  0  0  0  0  0  0  0  0  0  0
    1.2100   -2.0170    2.5250 C   0  0  0  0  0  0  0  0  0  0  0  0
   -0.0760    5.9830   -3.4520 C   0  0  0  0  0  0  0  0  0  0  0  0
   -2.1450    4.4540   -2.2060 C   0  0  0  0  0  0  0  0  0  0  0  0
   -1.9990    5.9600   -1.9820 C   0  0  0  0  0  0  0  0  0  0  0  0
   -0.2370    4.4530   -3.6710 C   0  0  0  0  0  0  0  0  0  0  0  0
   -2.4660    8.8630   -2.7580 C   0  0  0  0  0  0  0  0  0  0  0  0
   -0.3750   -3.0040    4.0670 C   0  0  0  0  0  0  0  0  0  0  0  0
    0.9400   -2.8060    3.6490 C   0  0  0  0  0  0  0  0  0  0  0  0
   -1.4250   -2.4140    3.3670 C   0  0  0  0  0  0  0  0  0  0  0  0
   -4.8760   10.2680   -2.5830 C   0  0  0  0  0  0  0  0  0  0  0  0
   -0.6820   -3.9710    5.4350 Cl  0  0  0  0  0  0  0  0  0  0  0  0
   -3.0230    9.1390   -1.5100 C   0  0  0  0  0  0  0  0  0  0  0  0
   -3.1380    9.2520   -3.9230 C   0  0  0  0  0  0  0  0  0  0  0  0
   -4.2220    9.8530   -1.4220 C   0  0  0  0  0  0  0  0  0  0  0  0
   -4.3350    9.9650   -3.8330 C   0  0  0  0  0  0  0  0  0  0  0  0
    1.8060   -0.6030    0.0040 C   0  0  0  0  0  0  0  0  0  0  0  0
   -6.1540   11.0350   -2.4900 C   0  0  0  0  0  0  0  0  0  0  0  0
    0.6020    0.9580   -1.3670 H   0  0  0  0  0  0  0  0  0  0  0  0
   -1.7960    2.2380   -3.5790 H   0  0  0  0  0  0  0  0  0  0  0  0
   -0.0900    1.9470   -3.1630 H   0  0  0  0  0  0  0  0  0  0  0  0
   -0.5740    8.4950   -3.6660 H   0  0  0  0  0  0  0  0  0  0  0  0
   -0.6370    8.1610   -1.9190 H   0  0  0  0  0  0  0  0  0  0  0  0
   -1.9750   -1.1660    1.7080 H   0  0  0  0  0  0  0  0  0  0  0  0
    2.2310   -1.8630    2.2080 H   0  0  0  0  0  0  0  0  0  0  0  0
    0.6100    6.1490   -2.6210 H   0  0  0  0  0  0  0  0  0  0  0  0
    0.3360    6.4270   -4.3580 H   0  0  0  0  0  0  0  0  0  0  0  0
   -2.5700    4.0100   -1.3060 H   0  0  0  0  0  0  0  0  0  0  0  0
   -2.8220    4.2930   -3.0450 H   0  0  0  0  0  0  0  0  0  0  0  0
   -2.9880    6.3880   -1.8170 H   0  0  0  0  0  0  0  0  0  0  0  0
   -1.3800    6.1260   -1.1010 H   0  0  0  0  0  0  0  0  0  0  0  0
   -0.8620    4.2880   -4.5490 H   0  0  0  0  0  0  0  0  0  0  0  0
    0.7480    4.0160   -3.8380 H   0  0  0  0  0  0  0  0  0  0  0  0
    1.7530   -3.2630    4.1940 H   0  0  0  0  0  0  0  0  0  0  0  0
   -2.4440   -2.5660    3.6910 H   0  0  0  0  0  0  0  0  0  0  0  0
   -2.5280    8.8010   -0.6110 H   0  0  0  0  0  0  0  0  0  0  0  0
   -2.7310    9.0010   -4.8910 H   0  0  0  0  0  0  0  0  0  0  0  0
   -4.6430   10.0840   -0.4540 H   0  0  0  0  0  0  0  0  0  0  0  0
   -4.8430   10.2820   -4.7320 H   0  0  0  0  0  0  0  0  0  0  0  0
    2.4320   -1.2740    0.5920 H   0  0  0  0  0  0  0  0  0  0  0  0
    2.2360    0.3980    0.0160 H   0  0  0  0  0  0  0  0  0  0  0  0
    1.7520   -0.9630   -1.0230 H   0  0  0  0  0  0  0  0  0  0  0  0
   -6.4180   11.1750   -1.4420 H   0  0  0  0  0  0  0  0  0  0  0  0
   -6.9470   10.4820   -2.9940 H   0  0  0  0  0  0  0  0  0  0  0  0
   -6.0300   12.0070   -2.9660 H   0  0  0  0  0  0  0  0  0  0  0  0
  1  5  1  0  0  0  0
  1  6  2  0  0  0  0
  2  5  1  0  0  0  0
  2  8  1  0  0  0  0
  2  9  2  0  0  0  0
  3  8  1  0  0  0  0
  3 14  1  0  0  0  0
  3 16  1  0  0  0  0
  4 10  1  0  0  0  0
  4 13  1  0  0  0  0
  4 15  1  0  0  0  0
  5 29  1  0  0  0  0
  6  7  1  0  0  0  0
  6 27  1  0  0  0  0
  7 11  1  0  0  0  0
  7 12  2  0  0  0  0
  8 30  1  0  0  0  0
  8 31  1  0  0  0  0
 10 17  1  0  0  0  0
 10 32  1  0  0  0  0
 10 33  1  0  0  0  0
 11 20  2  0  0  0  0
 11 34  1  0  0  0  0
 12 19  1  0  0  0  0
 12 35  1  0  0  0  0
 13 16  1  0  0  0  0
 13 36  1  0  0  0  0
 13 37  1  0  0  0  0
 14 15  1  0  0  0  0
 14 38  1  0  0  0  0
 14 39  1  0  0  0  0
 15 40  1  0  0  0  0
 15 41  1  0  0  0  0
 16 42  1  0  0  0  0
 16 43  1  0  0  0  0
 17 23  2  0  0  0  0
 17 24  1  0  0  0  0
 18 19  2  0  0  0  0
 18 20  1  0  0  0  0
 18 22  1  0  0  0  0
 19 44  1  0  0  0  0
 20 45  1  0  0  0  0
 21 25  2  0  0  0  0
 21 26  1  0  0  0  0
 21 28  1  0  0  0  0
 23 25  1  0  0  0  0
 23 46  1  0  0  0  0
 24 26  2  0  0  0  0
 24 47  1  0  0  0  0
 25 48  1  0  0  0  0
 26 49  1  0  0  0  0
 27 50  1  0  0  0  0
 27 51  1  0  0  0  0
 27 52  1  0  0  0  0
 28 53  1  0  0  0  0
 28 54  1  0  0  0  0
 28 55  1  0  0  0  0
M  END
>  <$CLUSTER>
627

>  <INDEX>
324146

$$$$
Enamine T0504-7142
  MOE2020           3D

 40 42  0  0  0  0  0  0  0  0999 V2000
    2.0340   -4.3530    3.8140 N   0  0  0  0  0  0  0  0  0  0  0  0
    1.2530   -2.9020    2.4210 C   0  0  0  0  0  0  0  0  0  0  0  0
    1.1440   -5.0630    3.1080 N   0  0  0  0  0  0  0  0  0  0  0  0
    0.0000   -0.3630    0.1140 N   0  0  0  0  0  0  0  0  0  0  0  0
    2.1340   -3.0450    3.4340 C   0  0  0  0  0  0  0  0  0  0  0  0
    0.2810    1.6480   -0.7460 N   0  0  0  0  0  0  0  0  0  0  0  0
   -1.0430    1.3180   -0.8650 N   0  0  0  0  0  0  0  0  0  0  0  0
    0.6490   -4.1760    2.2370 C   0  0  0  0  0  0  0  0  0  0  0  0
   -1.2030    0.1070   -0.3780 C   0  0  0  0  0  0  0  0  0  0  0  0
    0.9140    0.6340   -0.1910 C   0  0  0  0  0  0  0  0  0  0  0  0
    0.1420   -1.5770    0.7150 N   0  0  0  0  0  0  0  0  0  0  0  0
    0.9960   -1.6570    1.6760 C   0  0  0  0  0  0  0  0  0  0  0  0
    2.6220   -5.1300    4.9480 C   0  0  0  0  0  0  0  0  0  0  0  0
    3.0650   -2.1020    4.0980 C   0  0  0  0  0  0  0  0  0  0  0  0
   -2.4680   -0.6600   -0.3140 C   0  0  0  0  0  0  0  0  0  0  0  0
    2.3820    0.5500   -0.0110 C   0  0  0  0  0  0  0  0  0  0  0  0
   -0.3880   -4.6080    1.2680 C   0  0  0  0  0  0  0  0  0  0  0  0
    2.5140   -6.5330    4.9680 C   0  0  0  0  0  0  0  0  0  0  0  0
    3.2990   -4.4990    5.9960 C   0  0  0  0  0  0  0  0  0  0  0  0
    3.8760   -5.2530    7.0250 C   0  0  0  0  0  0  0  0  0  0  0  0
    3.0920   -7.2810    5.9980 C   0  0  0  0  0  0  0  0  0  0  0  0
    3.7760   -6.6410    7.0250 C   0  0  0  0  0  0  0  0  0  0  0  0
    1.5490   -0.7700    1.9480 H   0  0  0  0  0  0  0  0  0  0  0  0
    3.6100   -2.6230    4.8850 H   0  0  0  0  0  0  0  0  0  0  0  0
    2.4990   -1.2780    4.5320 H   0  0  0  0  0  0  0  0  0  0  0  0
    3.7710   -1.7120    3.3650 H   0  0  0  0  0  0  0  0  0  0  0  0
   -2.2810   -1.6320    0.1430 H   0  0  0  0  0  0  0  0  0  0  0  0
   -2.8580   -0.8020   -1.3220 H   0  0  0  0  0  0  0  0  0  0  0  0
   -3.1960   -0.1110    0.2840 H   0  0  0  0  0  0  0  0  0  0  0  0
    2.6350   -0.3930    0.4730 H   0  0  0  0  0  0  0  0  0  0  0  0
    2.7200    1.3800    0.6100 H   0  0  0  0  0  0  0  0  0  0  0  0
    2.8710    0.6020   -0.9840 H   0  0  0  0  0  0  0  0  0  0  0  0
   -0.6740   -3.7630    0.6410 H   0  0  0  0  0  0  0  0  0  0  0  0
   -1.2620   -4.9710    1.8090 H   0  0  0  0  0  0  0  0  0  0  0  0
    0.0100   -5.4070    0.6420 H   0  0  0  0  0  0  0  0  0  0  0  0
    1.9780   -7.0380    4.1780 H   0  0  0  0  0  0  0  0  0  0  0  0
    3.3770   -3.4220    6.0120 H   0  0  0  0  0  0  0  0  0  0  0  0
    4.4030   -4.7540    7.8250 H   0  0  0  0  0  0  0  0  0  0  0  0
    3.0070   -8.3580    5.9960 H   0  0  0  0  0  0  0  0  0  0  0  0
    4.2270   -7.2180    7.8190 H   0  0  0  0  0  0  0  0  0  0  0  0
  1  3  1  0  0  0  0
  1  5  1  0  0  0  0
  1 13  1  0  0  0  0
  2  5  2  0  0  0  0
  2  8  1  0  0  0  0
  2 12  1  0  0  0  0
  3  8  2  0  0  0  0
  4  9  1  0  0  0  0
  4 10  1  0  0  0  0
  4 11  1  0  0  0  0
  5 14  1  0  0  0  0
  6  7  1  0  0  0  0
  6 10  2  0  0  0  0
  7  9  2  0  0  0  0
  8 17  1  0  0  0  0
  9 15  1  0  0  0  0
 10 16  1  0  0  0  0
 11 12  2  0  0  0  0
 12 23  1  0  0  0  0
 13 18  1  0  0  0  0
 13 19  2  0  0  0  0
 14 24  1  0  0  0  0
 14 25  1  0  0  0  0
 14 26  1  0  0  0  0
 15 27  1  0  0  0  0
 15 28  1  0  0  0  0
 15 29  1  0  0  0  0
 16 30  1  0  0  0  0
 16 31  1  0  0  0  0
 16 32  1  0  0  0  0
 17 33  1  0  0  0  0
 17 34  1  0  0  0  0
 17 35  1  0  0  0  0
 18 21  2  0  0  0  0
 18 36  1  0  0  0  0
 19 20  1  0  0  0  0
 19 37  1  0  0  0  0
 20 22  2  0  0  0  0
 20 38  1  0  0  0  0
 21 22  1  0  0  0  0
 21 39  1  0  0  0  0
 22 40  1  0  0  0  0
M  END
>  <$CLUSTER>
628

>  <INDEX>
410330

$$$$
Enamine T0505-0113
  MOE2020           3D

 36 37  0  0  0  0  0  0  0  0999 V2000
    0.3620    0.6510   -0.0820 N   0  3  0  0  0  0  0  0  0  0  0  0
   -1.5300   -6.2220    1.7460 C   0  0  0  0  0  0  0  0  0  0  0  0
   -2.2100   -5.7460    2.8190 N   0  0  0  0  0  0  0  0  0  0  0  0
   -0.2920   -0.6470    0.0810 C   0  0  0  0  0  0  0  0  0  0  0  0
   -2.5170   -5.9950    4.1460 C   0  0  0  0  0  0  0  0  0  0  0  0
    1.6040    0.6970   -0.1070 O   0  5  0  0  0  0  0  0  0  0  0  0
   -1.5920   -5.4860    0.5910 N   0  0  0  0  0  0  0  0  0  0  0  0
   -0.3660    1.6520   -0.1880 O   0  0  0  0  0  0  0  0  0  0  0  0
   -0.6640   -7.6510    1.8350 S   0  0  0  0  0  0  0  0  0  0  0  0
   -2.3050   -4.2980    0.5280 N   0  0  0  0  0  0  0  0  0  0  0  0
   -3.3390   -5.0880    4.8640 C   0  0  0  0  0  0  0  0  0  0  0  0
    0.4780   -1.7400    0.1970 C   0  0  0  0  0  0  0  0  0  0  0  0
   -1.7850   -0.6130    0.1000 C   0  0  0  0  0  0  0  0  0  0  0  0
   -1.6140   -3.0820    0.3860 C   0  0  0  0  0  0  0  0  0  0  0  0
   -0.2100   -2.9890    0.3540 C   0  0  0  0  0  0  0  0  0  0  0  0
   -2.3480   -1.8930    0.2580 C   0  0  0  0  0  0  0  0  0  0  0  0
   -3.7900   -3.9740    4.1500 O   0  0  0  0  0  0  0  0  0  0  0  0
   -2.0380   -7.1260    4.8100 C   0  0  0  0  0  0  0  0  0  0  0  0
   -3.6570   -5.3340    6.2110 C   0  0  0  0  0  0  0  0  0  0  0  0
   -4.6210   -3.0450    4.8540 C   0  0  0  0  0  0  0  0  0  0  0  0
   -2.3590   -7.3640    6.1500 C   0  0  0  0  0  0  0  0  0  0  0  0
   -3.1650   -6.4720    6.8490 C   0  0  0  0  0  0  0  0  0  0  0  0
   -2.6630   -4.8850    2.5470 H   0  0  0  0  0  0  0  0  0  0  0  0
   -1.1080   -5.8160   -0.2320 H   0  0  0  0  0  0  0  0  0  0  0  0
   -3.3130   -4.3060    0.5840 H   0  0  0  0  0  0  0  0  0  0  0  0
    1.5560   -1.6820    0.1730 H   0  0  0  0  0  0  0  0  0  0  0  0
   -2.3670    0.2920    0.0030 H   0  0  0  0  0  0  0  0  0  0  0  0
    0.3720   -3.8930    0.4510 H   0  0  0  0  0  0  0  0  0  0  0  0
   -3.4250   -1.9660    0.2830 H   0  0  0  0  0  0  0  0  0  0  0  0
   -1.4100   -7.8280    4.2810 H   0  0  0  0  0  0  0  0  0  0  0  0
   -4.2830   -4.6410    6.7530 H   0  0  0  0  0  0  0  0  0  0  0  0
   -4.9010   -2.2300    4.1870 H   0  0  0  0  0  0  0  0  0  0  0  0
   -4.0750   -2.6450    5.7080 H   0  0  0  0  0  0  0  0  0  0  0  0
   -5.5200   -3.5530    5.2030 H   0  0  0  0  0  0  0  0  0  0  0  0
   -1.9790   -8.2450    6.6450 H   0  0  0  0  0  0  0  0  0  0  0  0
   -3.4090   -6.6600    7.8840 H   0  0  0  0  0  0  0  0  0  0  0  0
  1  4  1  0  0  0  0
  1  6  1  0  0  0  0
  1  8  2  0  0  0  0
  2  3  1  0  0  0  0
  2  7  1  0  0  0  0
  2  9  2  0  0  0  0
  3  5  1  0  0  0  0
  3 23  1  0  0  0  0
  4 12  2  0  0  0  0
  4 13  1  0  0  0  0
  5 11  2  0  0  0  0
  5 18  1  0  0  0  0
  7 10  1  0  0  0  0
  7 24  1  0  0  0  0
 10 14  1  0  0  0  0
 10 25  1  0  0  0  0
 11 17  1  0  0  0  0
 11 19  1  0  0  0  0
 12 15  1  0  0  0  0
 12 26  1  0  0  0  0
 13 16  2  0  0  0  0
 13 27  1  0  0  0  0
 14 15  2  0  0  0  0
 14 16  1  0  0  0  0
 15 28  1  0  0  0  0
 16 29  1  0  0  0  0
 17 20  1  0  0  0  0
 18 21  2  0  0  0  0
 18 30  1  0  0  0  0
 19 22  2  0  0  0  0
 19 31  1  0  0  0  0
 20 32  1  0  0  0  0
 20 33  1  0  0  0  0
 20 34  1  0  0  0  0
 21 22  1  0  0  0  0
 21 35  1  0  0  0  0
 22 36  1  0  0  0  0
M  CHG  1   1   1
M  CHG  1   6  -1
M  END
>  <$CLUSTER>
629

>  <INDEX>
410714

$$$$
Tripos 1547-01615
  MOE2020           3D

 54 56  0  0  1  0  0  0  0  0999 V2000
   -0.2100   -1.5620   -1.0230 N   0  0  0  0  0  0  0  0  0  0  0  0
   -0.0800   -2.3080   -2.1260 C   0  0  0  0  0  0  0  0  0  0  0  0
    0.0510    0.8220    0.6960 N   0  3  0  0  0  0  0  0  0  0  0  0
    1.0470   -3.1260   -2.3490 C   0  0  0  0  0  0  0  0  0  0  0  0
    1.1850   -3.9080   -3.5030 C   0  0  0  0  0  0  0  0  0  0  0  0
   -1.3610   -0.6890   -0.7360 C   0  0  0  0  0  0  0  0  0  0  0  0
    0.7800   -1.5030    0.0660 C   0  0  0  0  0  0  0  0  0  0  0  0
    0.1960   -3.8970   -4.4770 C   0  0  0  0  0  0  0  0  0  0  0  0
   -1.0620   -2.3240   -3.1390 C   0  0  0  0  0  0  0  0  0  0  0  0
   -0.9290   -3.1040   -4.2940 C   0  0  0  0  0  0  0  0  0  0  0  0
    0.4550    2.2220    1.0390 C   0  0  0  0  0  0  0  0  0  0  0  0
    1.2470   -0.0640    0.3930 C   0  0  0  0  0  0  0  0  0  0  0  0
   -0.9610    0.7750   -0.4350 C   0  0  0  0  0  0  0  0  0  0  0  0
    0.8660    2.2860    4.7840 O   0  0  0  0  0  0  0  0  0  0  0  0
    1.1500    2.3060    2.3890 C   0  0  3  0  0  0  0  0  0  0  0  0
    0.2080    2.0220    3.5660 C   0  0  0  0  0  0  0  0  0  0  0  0
    0.1800    2.0870    5.9380 C   0  0  0  0  0  0  0  0  0  0  0  0
    2.2010    1.3130    2.4450 O   0  0  0  0  0  0  0  0  0  0  0  0
    2.4050   -4.7540   -3.6780 C   0  0  0  0  0  0  0  0  0  0  0  0
    0.3380   -4.7270   -5.7080 C   0  0  0  0  0  0  0  0  0  0  0  0
    0.8920    2.3690    7.1090 C   0  0  0  0  0  0  0  0  0  0  0  0
   -1.1390    1.6390    6.0320 C   0  0  0  0  0  0  0  0  0  0  0  0
   -1.7370    1.4750    7.2850 C   0  0  0  0  0  0  0  0  0  0  0  0
    0.2950    2.2050    8.3600 C   0  0  0  0  0  0  0  0  0  0  0  0
   -1.0220    1.7570    8.4470 C   0  0  0  0  0  0  0  0  0  0  0  0
   -0.4000    0.4520    1.5210 H   0  0  0  0  0  0  0  0  0  0  0  0
    1.8300   -3.1500   -1.6050 H   0  0  0  0  0  0  0  0  0  0  0  0
   -1.8900   -1.0880    0.1300 H   0  0  0  0  0  0  0  0  0  0  0  0
   -2.0240   -0.6950   -1.6010 H   0  0  0  0  0  0  0  0  0  0  0  0
    1.6500   -2.0910   -0.2260 H   0  0  0  0  0  0  0  0  0  0  0  0
    0.3340   -1.9340    0.9620 H   0  0  0  0  0  0  0  0  0  0  0  0
   -1.9450   -1.7140   -3.0190 H   0  0  0  0  0  0  0  0  0  0  0  0
   -1.7040   -3.0890   -5.0460 H   0  0  0  0  0  0  0  0  0  0  0  0
   -0.4370    2.8480    1.0640 H   0  0  0  0  0  0  0  0  0  0  0  0
    1.1350    2.5890    0.2710 H   0  0  0  0  0  0  0  0  0  0  0  0
    1.9060   -0.0880    1.2610 H   0  0  0  0  0  0  0  0  0  0  0  0
    1.7880    0.3420   -0.4620 H   0  0  0  0  0  0  0  0  0  0  0  0
   -0.5230    1.2190   -1.3290 H   0  0  0  0  0  0  0  0  0  0  0  0
   -1.8490    1.3390   -0.1470 H   0  0  0  0  0  0  0  0  0  0  0  0
    1.5290    3.3240    2.4790 H   0  0  0  0  0  0  0  0  0  0  0  0
   -0.6720    2.6600    3.4860 H   0  0  0  0  0  0  0  0  0  0  0  0
   -0.0970    0.9760    3.5400 H   0  0  0  0  0  0  0  0  0  0  0  0
    1.7900    0.4500    2.3600 H   0  0  0  0  0  0  0  0  0  0  0  0
    3.0600   -4.6300   -2.8160 H   0  0  0  0  0  0  0  0  0  0  0  0
    2.9320   -4.4490   -4.5820 H   0  0  0  0  0  0  0  0  0  0  0  0
    2.1120   -5.8000   -3.7640 H   0  0  0  0  0  0  0  0  0  0  0  0
    1.2790   -5.2750   -5.6700 H   0  0  0  0  0  0  0  0  0  0  0  0
    0.3290   -4.0800   -6.5850 H   0  0  0  0  0  0  0  0  0  0  0  0
   -0.4910   -5.4320   -5.7680 H   0  0  0  0  0  0  0  0  0  0  0  0
    1.9120    2.7170    7.0440 H   0  0  0  0  0  0  0  0  0  0  0  0
   -1.6990    1.4190    5.1350 H   0  0  0  0  0  0  0  0  0  0  0  0
   -2.7580    1.1280    7.3520 H   0  0  0  0  0  0  0  0  0  0  0  0
    0.8520    2.4250    9.2590 H   0  0  0  0  0  0  0  0  0  0  0  0
   -1.4870    1.6290    9.4130 H   0  0  0  0  0  0  0  0  0  0  0  0
  1  2  1  0  0  0  0
  1  6  1  0  0  0  0
  1  7  1  0  0  0  0
  2  4  1  0  0  0  0
  2  9  2  0  0  0  0
  3 11  1  0  0  0  0
  3 12  1  0  0  0  0
  3 13  1  0  0  0  0
  3 26  1  0  0  0  0
  4  5  2  0  0  0  0
  4 27  1  0  0  0  0
  5  8  1  0  0  0  0
  5 19  1  0  0  0  0
  6 13  1  0  0  0  0
  6 28  1  0  0  0  0
  6 29  1  0  0  0  0
  7 12  1  0  0  0  0
  7 30  1  0  0  0  0
  7 31  1  0  0  0  0
  8 10  2  0  0  0  0
  8 20  1  0  0  0  0
  9 10  1  0  0  0  0
  9 32  1  0  0  0  0
 10 33  1  0  0  0  0
 11 15  1  0  0  0  0
 11 34  1  0  0  0  0
 11 35  1  0  0  0  0
 12 36  1  0  0  0  0
 12 37  1  0  0  0  0
 13 38  1  0  0  0  0
 13 39  1  0  0  0  0
 14 16  1  0  0  0  0
 14 17  1  0  0  0  0
 15 16  1  0  0  0  0
 15 18  1  0  0  0  0
 15 40  1  0  0  0  0
 16 41  1  0  0  0  0
 16 42  1  0  0  0  0
 17 21  1  0  0  0  0
 17 22  2  0  0  0  0
 18 43  1  0  0  0  0
 19 44  1  0  0  0  0
 19 45  1  0  0  0  0
 19 46  1  0  0  0  0
 20 47  1  0  0  0  0
 20 48  1  0  0  0  0
 20 49  1  0  0  0  0
 21 24  2  0  0  0  0
 21 50  1  0  0  0  0
 22 23  1  0  0  0  0
 22 51  1  0  0  0  0
 23 25  2  0  0  0  0
 23 52  1  0  0  0  0
 24 25  1  0  0  0  0
 24 53  1  0  0  0  0
 25 54  1  0  0  0  0
M  CHG  1   3   1
M  END
>  <$CLUSTER>
630

>  <INDEX>
464884

$$$$
Chemdiv 1416-0529
  MOE2020           3D

 51 53  0  0  0  0  0  0  0  0999 V2000
   -1.7820   -1.0450   -2.9850 C   0  0  0  0  0  0  0  0  0  0  0  0
   -3.0120   -1.3240   -2.4360 C   0  0  0  0  0  0  0  0  0  0  0  0
   -1.4440   -1.5030   -4.2670 C   0  0  0  0  0  0  0  0  0  0  0  0
   -0.7780   -0.1430   -2.2720 C   0  0  0  0  0  0  0  0  0  0  0  0
    2.1320    0.5830    4.3050 C   0  0  0  0  0  0  0  0  0  0  0  0
    2.8410    1.7290    3.9390 C   0  0  0  0  0  0  0  0  0  0  0  0
    1.2900   -0.0380    3.3790 C   0  0  0  0  0  0  0  0  0  0  0  0
    1.1640    0.4980    2.0920 C   0  0  0  0  0  0  0  0  0  0  0  0
   -2.3600   -2.2830   -4.9780 C   0  0  0  0  0  0  0  0  0  0  0  0
    0.1090    0.2820   -0.0900 N   0  0  0  0  0  0  0  0  0  0  0  0
   -3.9270   -2.1040   -3.1480 C   0  0  0  0  0  0  0  0  0  0  0  0
   -3.6010   -2.5820   -4.4160 C   0  0  0  0  0  0  0  0  0  0  0  0
    3.7140    2.3730    4.8980 N   0  0  0  0  0  0  0  0  0  0  0  0
   -0.7480   -0.4540   -0.8460 N   0  0  0  0  0  0  0  0  0  0  0  0
   -0.1320    0.6890   -2.8490 O   0  0  0  0  0  0  0  0  0  0  0  0
    1.8650    1.6340    1.7280 C   0  0  0  0  0  0  0  0  0  0  0  0
    2.7080    2.2550    2.6530 C   0  0  0  0  0  0  0  0  0  0  0  0
    0.2540   -0.1830    1.1150 C   0  0  0  0  0  0  0  0  0  0  0  0
   -0.2230   -1.2300   -4.8200 O   0  0  0  0  0  0  0  0  0  0  0  0
    0.5910   -1.1710    3.7430 O   0  0  0  0  0  0  0  0  0  0  0  0
    4.4050    3.6350    4.5980 C   0  0  0  0  0  0  0  0  0  0  0  0
    3.9630    1.8030    6.2300 C   0  0  0  0  0  0  0  0  0  0  0  0
   -5.1960   -2.4160   -2.5910 C   0  0  0  0  0  0  0  0  0  0  0  0
   -4.5400   -3.3650   -5.1340 C   0  0  0  0  0  0  0  0  0  0  0  0
    5.7320    3.3780    3.8990 C   0  0  0  0  0  0  0  0  0  0  0  0
    2.9050    2.2590    7.2250 C   0  0  0  0  0  0  0  0  0  0  0  0
   -5.7830   -3.6630   -4.5740 C   0  0  0  0  0  0  0  0  0  0  0  0
   -6.1100   -3.1890   -3.3060 C   0  0  0  0  0  0  0  0  0  0  0  0
   -3.2690   -0.9420   -1.4590 H   0  0  0  0  0  0  0  0  0  0  0  0
    2.2340    0.1780    5.3010 H   0  0  0  0  0  0  0  0  0  0  0  0
   -2.1070   -2.6530   -5.9610 H   0  0  0  0  0  0  0  0  0  0  0  0
   -1.3310   -1.1750   -0.4440 H   0  0  0  0  0  0  0  0  0  0  0  0
    1.7610    2.0390    0.7320 H   0  0  0  0  0  0  0  0  0  0  0  0
    3.2570    3.1420    2.3730 H   0  0  0  0  0  0  0  0  0  0  0  0
   -0.2860   -1.0690    1.4150 H   0  0  0  0  0  0  0  0  0  0  0  0
   -0.0780   -1.6090   -5.6900 H   0  0  0  0  0  0  0  0  0  0  0  0
    0.0320   -1.5410    3.0560 H   0  0  0  0  0  0  0  0  0  0  0  0
    4.5910    4.1700    5.5290 H   0  0  0  0  0  0  0  0  0  0  0  0
    3.7730    4.2420    3.9500 H   0  0  0  0  0  0  0  0  0  0  0  0
    4.9440    2.1270    6.5790 H   0  0  0  0  0  0  0  0  0  0  0  0
    3.9430    0.7150    6.1620 H   0  0  0  0  0  0  0  0  0  0  0  0
   -5.4540   -2.0520   -1.6080 H   0  0  0  0  0  0  0  0  0  0  0  0
   -4.2920   -3.7320   -6.1190 H   0  0  0  0  0  0  0  0  0  0  0  0
    6.3700    2.7710    4.5420 H   0  0  0  0  0  0  0  0  0  0  0  0
    6.2240    4.3280    3.6930 H   0  0  0  0  0  0  0  0  0  0  0  0
    5.5530    2.8510    2.9620 H   0  0  0  0  0  0  0  0  0  0  0  0
    2.9200    3.3460    7.2980 H   0  0  0  0  0  0  0  0  0  0  0  0
    3.1150    1.8260    8.2030 H   0  0  0  0  0  0  0  0  0  0  0  0
    1.9220    1.9310    6.8860 H   0  0  0  0  0  0  0  0  0  0  0  0
   -6.4930   -4.2620   -5.1250 H   0  0  0  0  0  0  0  0  0  0  0  0
   -7.0730   -3.4210   -2.8760 H   0  0  0  0  0  0  0  0  0  0  0  0
  1  2  1  0  0  0  0
  1  3  2  0  0  0  0
  1  4  1  0  0  0  0
  2 11  2  0  0  0  0
  2 29  1  0  0  0  0
  3  9  1  0  0  0  0
  3 19  1  0  0  0  0
  4 14  1  0  0  0  0
  4 15  2  0  0  0  0
  5  6  1  0  0  0  0
  5  7  2  0  0  0  0
  5 30  1  0  0  0  0
  6 13  1  0  0  0  0
  6 17  2  0  0  0  0
  7  8  1  0  0  0  0
  7 20  1  0  0  0  0
  8 16  2  0  0  0  0
  8 18  1  0  0  0  0
  9 12  2  0  0  0  0
  9 31  1  0  0  0  0
 10 14  1  0  0  0  0
 10 18  2  0  0  0  0
 11 12  1  0  0  0  0
 11 23  1  0  0  0  0
 12 24  1  0  0  0  0
 13 21  1  0  0  0  0
 13 22  1  0  0  0  0
 14 32  1  0  0  0  0
 16 17  1  0  0  0  0
 16 33  1  0  0  0  0
 17 34  1  0  0  0  0
 18 35  1  0  0  0  0
 19 36  1  0  0  0  0
 20 37  1  0  0  0  0
 21 25  1  0  0  0  0
 21 38  1  0  0  0  0
 21 39  1  0  0  0  0
 22 26  1  0  0  0  0
 22 40  1  0  0  0  0
 22 41  1  0  0  0  0
 23 28  2  0  0  0  0
 23 42  1  0  0  0  0
 24 27  2  0  0  0  0
 24 43  1  0  0  0  0
 25 44  1  0  0  0  0
 25 45  1  0  0  0  0
 25 46  1  0  0  0  0
 26 47  1  0  0  0  0
 26 48  1  0  0  0  0
 26 49  1  0  0  0  0
 27 28  1  0  0  0  0
 27 50  1  0  0  0  0
 28 51  1  0  0  0  0
M  END
>  <$CLUSTER>
631

>  <INDEX>
14047

$$$$
Enamine T0507-0361
  MOE2020           3D

 39 40  0  0  0  0  0  0  0  0999 V2000
   -1.7940   -0.0170    0.2020 C   0  0  0  0  0  0  0  0  0  0  0  0
   -0.3390   -0.0260    0.0180 C   0  0  0  0  0  0  0  0  0  0  0  0
   -5.1700   -2.4710    2.5070 N   0  0  0  0  0  0  0  0  0  0  0  0
   -3.8320   -2.3060    2.2080 C   0  0  0  0  0  0  0  0  0  0  0  0
   -5.8250   -3.4260    3.3190 C   0  0  0  0  0  0  0  0  0  0  0  0
   -2.2040   -1.0170    1.0140 O   0  0  0  0  0  0  0  0  0  0  0  0
    0.2310    0.9560   -0.8010 C   0  0  0  0  0  0  0  0  0  0  0  0
    0.4860   -0.9750    0.6310 C   0  0  0  0  0  0  0  0  0  0  0  0
    1.6120    0.9870   -1.0050 C   0  0  0  0  0  0  0  0  0  0  0  0
    1.8670   -0.9400    0.4230 C   0  0  0  0  0  0  0  0  0  0  0  0
    2.4300    0.0390   -0.3930 C   0  0  0  0  0  0  0  0  0  0  0  0
   -2.5490    0.7940   -0.3140 O   0  0  0  0  0  0  0  0  0  0  0  0
   -7.2300   -3.3570    3.4500 C   0  0  0  0  0  0  0  0  0  0  0  0
   -2.9450   -3.0290    2.6430 O   0  0  0  0  0  0  0  0  0  0  0  0
   -3.6000   -1.1290    1.2810 C   0  0  0  0  0  0  0  0  0  0  0  0
    2.3100    2.1790   -2.0010 Cl  0  0  0  0  0  0  0  0  0  0  0  0
    2.8530   -2.1070    1.1780 Cl  0  0  0  0  0  0  0  0  0  0  0  0
   -7.8480   -2.3430    2.7570 O   0  0  0  0  0  0  0  0  0  0  0  0
   -5.1250   -4.4320    3.9960 C   0  0  0  0  0  0  0  0  0  0  0  0
   -7.9020   -4.2920    4.2480 C   0  0  0  0  0  0  0  0  0  0  0  0
   -9.2630   -2.2440    2.8650 C   0  0  0  0  0  0  0  0  0  0  0  0
   -9.7940   -1.1090    2.0680 C   0  0  0  0  0  0  0  0  0  0  0  0
   -5.8050   -5.3570    4.7890 C   0  0  0  0  0  0  0  0  0  0  0  0
   -7.1890   -5.2870    4.9150 C   0  0  0  0  0  0  0  0  0  0  0  0
   -5.7840   -1.7970    2.0730 H   0  0  0  0  0  0  0  0  0  0  0  0
   -0.4000    1.6920   -1.2770 H   0  0  0  0  0  0  0  0  0  0  0  0
    0.0550   -1.7350    1.2660 H   0  0  0  0  0  0  0  0  0  0  0  0
    3.4980    0.0630   -0.5510 H   0  0  0  0  0  0  0  0  0  0  0  0
   -3.9560   -0.2140    1.7550 H   0  0  0  0  0  0  0  0  0  0  0  0
   -4.1390   -1.2870    0.3470 H   0  0  0  0  0  0  0  0  0  0  0  0
   -4.0510   -4.4920    3.9040 H   0  0  0  0  0  0  0  0  0  0  0  0
   -8.9760   -4.2420    4.3470 H   0  0  0  0  0  0  0  0  0  0  0  0
   -9.5280   -2.0960    3.9120 H   0  0  0  0  0  0  0  0  0  0  0  0
   -9.7110   -3.1700    2.5040 H   0  0  0  0  0  0  0  0  0  0  0  0
   -9.3510   -0.1780    2.4220 H   0  0  0  0  0  0  0  0  0  0  0  0
  -10.8770   -1.0620    2.1800 H   0  0  0  0  0  0  0  0  0  0  0  0
   -9.5430   -1.2540    1.0170 H   0  0  0  0  0  0  0  0  0  0  0  0
   -5.2560   -6.1300    5.3060 H   0  0  0  0  0  0  0  0  0  0  0  0
   -7.7110   -6.0040    5.5300 H   0  0  0  0  0  0  0  0  0  0  0  0
  1  2  1  0  0  0  0
  1  6  1  0  0  0  0
  1 12  2  0  0  0  0
  2  7  2  0  0  0  0
  2  8  1  0  0  0  0
  3  4  1  0  0  0  0
  3  5  1  0  0  0  0
  3 25  1  0  0  0  0
  4 14  2  0  0  0  0
  4 15  1  0  0  0  0
  5 13  2  0  0  0  0
  5 19  1  0  0  0  0
  6 15  1  0  0  0  0
  7  9  1  0  0  0  0
  7 26  1  0  0  0  0
  8 10  2  0  0  0  0
  8 27  1  0  0  0  0
  9 11  2  0  0  0  0
  9 16  1  0  0  0  0
 10 11  1  0  0  0  0
 10 17  1  0  0  0  0
 11 28  1  0  0  0  0
 13 18  1  0  0  0  0
 13 20  1  0  0  0  0
 15 29  1  0  0  0  0
 15 30  1  0  0  0  0
 18 21  1  0  0  0  0
 19 23  2  0  0  0  0
 19 31  1  0  0  0  0
 20 24  2  0  0  0  0
 20 32  1  0  0  0  0
 21 22  1  0  0  0  0
 21 33  1  0  0  0  0
 21 34  1  0  0  0  0
 22 35  1  0  0  0  0
 22 36  1  0  0  0  0
 22 37  1  0  0  0  0
 23 24  1  0  0  0  0
 23 38  1  0  0  0  0
 24 39  1  0  0  0  0
M  END
>  <$CLUSTER>
632

>  <INDEX>
414899

$$$$
Enamine T0507-3770
  MOE2020           3D

 23 24  0  0  0  0  0  0  0  0999 V2000
    0.4990    1.0000   -0.3480 C   0  0  0  0  0  0  0  0  0  0  0  0
    0.6310   -0.3600   -0.1580 C   0  0  0  0  0  0  0  0  0  0  0  0
   -1.6610   -0.4360    0.6400 N   0  0  0  0  0  0  0  0  0  0  0  0
   -1.6850    0.8460    0.4270 C   0  0  0  0  0  0  0  0  0  0  0  0
   -0.6620    1.6220   -0.0580 N   0  0  0  0  0  0  0  0  0  0  0  0
   -0.4940   -1.1490    0.3640 C   0  0  0  0  0  0  0  0  0  0  0  0
    1.9030    1.7300   -0.9550 S   0  0  0  0  0  0  0  0  0  0  0  0
    1.9340   -0.8080   -0.5270 C   0  0  0  0  0  0  0  0  0  0  0  0
    2.7280    0.2270   -0.9770 C   0  0  0  0  0  0  0  0  0  0  0  0
   -3.0510    1.6450    0.7580 C   0  0  0  0  0  0  0  0  0  0  0  0
    4.1080    0.1890   -1.4430 C   0  0  0  0  0  0  0  0  0  0  0  0
   -0.3920   -2.3580    0.5380 O   0  0  0  0  0  0  0  0  0  0  0  0
    4.7800    1.1330   -1.8370 O   0  0  0  0  0  0  0  0  0  0  0  0
   -4.0390    0.8310    1.2380 F   0  0  0  0  0  0  0  0  0  0  0  0
   -2.8670    2.6210    1.6990 F   0  0  0  0  0  0  0  0  0  0  0  0
   -3.5690    2.2690   -0.3450 F   0  0  0  0  0  0  0  0  0  0  0  0
    4.5970   -1.0800   -1.3910 O   0  0  0  0  0  0  0  0  0  0  0  0
    5.9440   -1.2950   -1.8150 C   0  0  0  0  0  0  0  0  0  0  0  0
   -0.7740    2.6170   -0.1920 H   0  0  0  0  0  0  0  0  0  0  0  0
    2.2600   -1.8350   -0.4620 H   0  0  0  0  0  0  0  0  0  0  0  0
    6.1910   -2.3520   -1.7170 H   0  0  0  0  0  0  0  0  0  0  0  0
    6.6190   -0.7050   -1.1950 H   0  0  0  0  0  0  0  0  0  0  0  0
    6.0500   -0.9920   -2.8570 H   0  0  0  0  0  0  0  0  0  0  0  0
  1  2  2  0  0  0  0
  1  5  1  0  0  0  0
  1  7  1  0  0  0  0
  2  6  1  0  0  0  0
  2  8  1  0  0  0  0
  3  4  2  0  0  0  0
  3  6  1  0  0  0  0
  4  5  1  0  0  0  0
  4 10  1  0  0  0  0
  5 19  1  0  0  0  0
  6 12  2  0  0  0  0
  7  9  1  0  0  0  0
  8  9  2  0  0  0  0
  8 20  1  0  0  0  0
  9 11  1  0  0  0  0
 10 14  1  0  0  0  0
 10 15  1  0  0  0  0
 10 16  1  0  0  0  0
 11 13  2  0  0  0  0
 11 17  1  0  0  0  0
 17 18  1  0  0  0  0
 18 21  1  0  0  0  0
 18 22  1  0  0  0  0
 18 23  1  0  0  0  0
M  END
>  <$CLUSTER>
633

>  <INDEX>
415371

$$$$
Enamine T0509-2958
  MOE2020           3D

 52 55  0  0  0  0  0  0  0  0999 V2000
    2.2740    6.6510   -1.9510 C   0  0  0  0  0  0  0  0  0  0  0  0
    1.9230    9.3920   -1.8250 N   0  0  0  0  0  0  0  0  0  0  0  0
    1.5560    8.5900   -0.8000 C   0  0  0  0  0  0  0  0  0  0  0  0
    1.7080    7.2190   -0.8120 C   0  0  0  0  0  0  0  0  0  0  0  0
    2.4510    5.1630   -1.9320 C   0  0  0  0  0  0  0  0  0  0  0  0
    0.0330    2.6420   -0.7960 C   0  0  0  0  0  0  0  0  0  0  0  0
   -0.0580    1.3040   -0.6770 N   0  0  0  0  0  0  0  0  0  0  0  0
    2.6630    7.4200   -3.0490 C   0  0  0  0  0  0  0  0  0  0  0  0
    2.4630    8.8190   -2.9270 C   0  0  0  0  0  0  0  0  0  0  0  0
    1.3500    4.5620   -1.4470 O   0  0  0  0  0  0  0  0  0  0  0  0
    0.9680    9.3060    0.3830 C   0  0  0  0  0  0  0  0  0  0  0  0
    1.3270    3.1830   -1.3520 C   0  0  0  0  0  0  0  0  0  0  0  0
    3.4620    4.5870   -2.3090 O   0  0  0  0  0  0  0  0  0  0  0  0
   -0.8630    3.4300   -0.4840 O   0  0  0  0  0  0  0  0  0  0  0  0
    0.0500   -1.2900    0.6520 O   0  0  0  0  0  0  0  0  0  0  0  0
    0.2110   10.4840    0.2090 C   0  0  0  0  0  0  0  0  0  0  0  0
    1.1450    8.8360    1.7000 C   0  0  0  0  0  0  0  0  0  0  0  0
   -0.1690   10.6620    2.5880 C   0  0  0  0  0  0  0  0  0  0  0  0
   -0.3530   11.1520    1.2990 C   0  0  0  0  0  0  0  0  0  0  0  0
    0.5810    9.5060    2.7890 C   0  0  0  0  0  0  0  0  0  0  0  0
   -1.2610    0.6380   -0.1500 C   0  0  0  0  0  0  0  0  0  0  0  0
    0.9480    0.2850   -1.0190 C   0  0  0  0  0  0  0  0  0  0  0  0
   -0.6660   11.2280    3.7350 O   0  0  0  0  0  0  0  0  0  0  0  0
    3.2180    6.9160   -4.2520 C   0  0  0  0  0  0  0  0  0  0  0  0
    2.8310    9.6470   -3.9850 C   0  0  0  0  0  0  0  0  0  0  0  0
   -0.9270   -0.2950    1.0250 C   0  0  0  0  0  0  0  0  0  0  0  0
    1.2470   -0.6420    0.1700 C   0  0  0  0  0  0  0  0  0  0  0  0
   -1.4380   12.4140    3.5850 C   0  0  0  0  0  0  0  0  0  0  0  0
    3.5750    7.7710   -5.2930 C   0  0  0  0  0  0  0  0  0  0  0  0
    3.3840    9.1390   -5.1590 C   0  0  0  0  0  0  0  0  0  0  0  0
    1.4010    6.6120    0.0270 H   0  0  0  0  0  0  0  0  0  0  0  0
    1.4760    2.7660   -2.3480 H   0  0  0  0  0  0  0  0  0  0  0  0
    2.1420    2.8680   -0.7000 H   0  0  0  0  0  0  0  0  0  0  0  0
    0.0650   10.8770   -0.7860 H   0  0  0  0  0  0  0  0  0  0  0  0
    1.7270    7.9420    1.8710 H   0  0  0  0  0  0  0  0  0  0  0  0
   -0.9320   12.0500    1.1410 H   0  0  0  0  0  0  0  0  0  0  0  0
    0.7270    9.1260    3.7890 H   0  0  0  0  0  0  0  0  0  0  0  0
   -1.7180    0.0520   -0.9470 H   0  0  0  0  0  0  0  0  0  0  0  0
   -1.9640    1.3980    0.1910 H   0  0  0  0  0  0  0  0  0  0  0  0
    1.8700    0.7850   -1.3170 H   0  0  0  0  0  0  0  0  0  0  0  0
    0.5750   -0.3150   -1.8490 H   0  0  0  0  0  0  0  0  0  0  0  0
    3.3670    5.8520   -4.3640 H   0  0  0  0  0  0  0  0  0  0  0  0
    2.6840   10.7130   -3.8930 H   0  0  0  0  0  0  0  0  0  0  0  0
   -0.5300    0.3000    1.8470 H   0  0  0  0  0  0  0  0  0  0  0  0
   -1.8390   -0.7980    1.3480 H   0  0  0  0  0  0  0  0  0  0  0  0
    1.9590   -1.4040   -0.1460 H   0  0  0  0  0  0  0  0  0  0  0  0
    1.6800   -0.0530    0.9780 H   0  0  0  0  0  0  0  0  0  0  0  0
   -1.7700   12.7580    4.5650 H   0  0  0  0  0  0  0  0  0  0  0  0
   -2.3060   12.2060    2.9600 H   0  0  0  0  0  0  0  0  0  0  0  0
   -0.8290   13.1870    3.1160 H   0  0  0  0  0  0  0  0  0  0  0  0
    3.9990    7.3700   -6.2020 H   0  0  0  0  0  0  0  0  0  0  0  0
    3.6630    9.8070   -5.9610 H   0  0  0  0  0  0  0  0  0  0  0  0
  1  4  2  0  0  0  0
  1  5  1  0  0  0  0
  1  8  1  0  0  0  0
  2  3  2  0  0  0  0
  2  9  1  0  0  0  0
  3  4  1  0  0  0  0
  3 11  1  0  0  0  0
  4 31  1  0  0  0  0
  5 10  1  0  0  0  0
  5 13  2  0  0  0  0
  6  7  1  0  0  0  0
  6 12  1  0  0  0  0
  6 14  2  0  0  0  0
  7 21  1  0  0  0  0
  7 22  1  0  0  0  0
  8  9  2  0  0  0  0
  8 24  1  0  0  0  0
  9 25  1  0  0  0  0
 10 12  1  0  0  0  0
 11 16  2  0  0  0  0
 11 17  1  0  0  0  0
 12 32  1  0  0  0  0
 12 33  1  0  0  0  0
 15 26  1  0  0  0  0
 15 27  1  0  0  0  0
 16 19  1  0  0  0  0
 16 34  1  0  0  0  0
 17 20  2  0  0  0  0
 17 35  1  0  0  0  0
 18 19  2  0  0  0  0
 18 20  1  0  0  0  0
 18 23  1  0  0  0  0
 19 36  1  0  0  0  0
 20 37  1  0  0  0  0
 21 26  1  0  0  0  0
 21 38  1  0  0  0  0
 21 39  1  0  0  0  0
 22 27  1  0  0  0  0
 22 40  1  0  0  0  0
 22 41  1  0  0  0  0
 23 28  1  0  0  0  0
 24 29  2  0  0  0  0
 24 42  1  0  0  0  0
 25 30  2  0  0  0  0
 25 43  1  0  0  0  0
 26 44  1  0  0  0  0
 26 45  1  0  0  0  0
 27 46  1  0  0  0  0
 27 47  1  0  0  0  0
 28 48  1  0  0  0  0
 28 49  1  0  0  0  0
 28 50  1  0  0  0  0
 29 30  1  0  0  0  0
 29 51  1  0  0  0  0
 30 52  1  0  0  0  0
M  END
>  <$CLUSTER>
634

>  <INDEX>
420138

$$$$
Enamine T0508-2565
  MOE2020           3D

 48 51  0  0  1  0  0  0  0  0999 V2000
    0.5260   -0.6830   -0.8600 N   0  0  0  0  0  0  0  0  0  0  0  0
   -1.2740   -2.0550    0.2530 C   0  0  0  0  0  0  0  0  0  0  0  0
   -0.5840   -0.6990    0.1320 C   0  0  3  0  0  0  0  0  0  0  0  0
    1.6770    0.1160   -0.7820 C   0  0  0  0  0  0  0  0  0  0  0  0
   -0.9120   -3.1410   -0.5660 C   0  0  0  0  0  0  0  0  0  0  0  0
   -2.2760   -2.2410    1.2220 C   0  0  0  0  0  0  0  0  0  0  0  0
   -1.5580    0.4180   -0.2000 C   0  0  0  0  0  0  0  0  0  0  0  0
    0.3790   -1.5670   -2.0180 C   0  0  0  0  0  0  0  0  0  0  0  0
   -2.9120   -3.4740    1.3660 C   0  0  0  0  0  0  0  0  0  0  0  0
   -1.5490   -4.3800   -0.4030 C   0  0  0  0  0  0  0  0  0  0  0  0
   -1.7840    1.7170    0.9070 S   0  0  0  0  0  0  0  0  0  0  0  0
   -2.5490   -4.5430    0.5530 C   0  0  0  0  0  0  0  0  0  0  0  0
    1.8880    0.9470    0.4110 C   0  0  0  0  0  0  0  0  0  0  0  0
    2.5510    0.1890   -1.6420 O   0  0  0  0  0  0  0  0  0  0  0  0
    0.2030   -3.0090   -1.5690 C   0  0  0  0  0  0  0  0  0  0  0  0
   -2.3830    0.5650   -1.3020 C   0  0  0  0  0  0  0  0  0  0  0  0
   -2.9340    2.4740   -0.1020 C   0  0  0  0  0  0  0  0  0  0  0  0
   -3.1680    1.7520   -1.2490 C   0  0  0  0  0  0  0  0  0  0  0  0
    1.7780    2.3330    0.2970 C   0  0  0  0  0  0  0  0  0  0  0  0
    2.2860    0.3530    1.6100 C   0  0  0  0  0  0  0  0  0  0  0  0
    2.3950    2.5450    2.6250 C   0  0  0  0  0  0  0  0  0  0  0  0
   -3.9020   -3.7230    2.2910 O   0  0  0  0  0  0  0  0  0  0  0  0
   -3.2220   -5.7250    0.7700 O   0  0  0  0  0  0  0  0  0  0  0  0
    2.0230    3.1310    1.4130 C   0  0  0  0  0  0  0  0  0  0  0  0
    2.5300    1.1580    2.7220 C   0  0  0  0  0  0  0  0  0  0  0  0
    2.6030    3.3820    3.6430 F   0  0  0  0  0  0  0  0  0  0  0  0
   -2.8750   -6.8380   -0.0440 C   0  0  0  0  0  0  0  0  0  0  0  0
   -4.3000   -2.6520    3.1400 C   0  0  0  0  0  0  0  0  0  0  0  0
   -0.1580   -0.5250    1.1200 H   0  0  0  0  0  0  0  0  0  0  0  0
   -2.5570   -1.4180    1.8630 H   0  0  0  0  0  0  0  0  0  0  0  0
    1.2700   -1.4920   -2.6420 H   0  0  0  0  0  0  0  0  0  0  0  0
   -0.4950   -1.2620   -2.5940 H   0  0  0  0  0  0  0  0  0  0  0  0
   -1.2620   -5.2150   -1.0240 H   0  0  0  0  0  0  0  0  0  0  0  0
   -0.0270   -3.6250   -2.4380 H   0  0  0  0  0  0  0  0  0  0  0  0
    1.1310   -3.3540   -1.1140 H   0  0  0  0  0  0  0  0  0  0  0  0
   -2.4270   -0.1450   -2.1150 H   0  0  0  0  0  0  0  0  0  0  0  0
   -3.4200    3.4090    0.1330 H   0  0  0  0  0  0  0  0  0  0  0  0
   -3.8650    2.0500   -2.0190 H   0  0  0  0  0  0  0  0  0  0  0  0
    1.5060    2.7830   -0.6460 H   0  0  0  0  0  0  0  0  0  0  0  0
    2.4040   -0.7190    1.6760 H   0  0  0  0  0  0  0  0  0  0  0  0
    1.9250    4.2040    1.3410 H   0  0  0  0  0  0  0  0  0  0  0  0
    2.8240    0.7090    3.6590 H   0  0  0  0  0  0  0  0  0  0  0  0
   -3.4830   -7.6980    0.2370 H   0  0  0  0  0  0  0  0  0  0  0  0
   -1.8210   -7.0770    0.0970 H   0  0  0  0  0  0  0  0  0  0  0  0
   -3.0550   -6.5930   -1.0910 H   0  0  0  0  0  0  0  0  0  0  0  0
   -5.0850   -2.9950    3.8140 H   0  0  0  0  0  0  0  0  0  0  0  0
   -4.6760   -1.8280    2.5340 H   0  0  0  0  0  0  0  0  0  0  0  0
   -3.4440   -2.3130    3.7230 H   0  0  0  0  0  0  0  0  0  0  0  0
  1  3  1  0  0  0  0
  1  4  1  0  0  0  0
  1  8  1  0  0  0  0
  2  3  1  0  0  0  0
  2  5  1  0  0  0  0
  2  6  2  0  0  0  0
  3  7  1  0  0  0  0
  3 29  1  0  0  0  0
  4 13  1  0  0  0  0
  4 14  2  0  0  0  0
  5 10  2  0  0  0  0
  5 15  1  0  0  0  0
  6  9  1  0  0  0  0
  6 30  1  0  0  0  0
  7 11  1  0  0  0  0
  7 16  2  0  0  0  0
  8 15  1  0  0  0  0
  8 31  1  0  0  0  0
  8 32  1  0  0  0  0
  9 12  2  0  0  0  0
  9 22  1  0  0  0  0
 10 12  1  0  0  0  0
 10 33  1  0  0  0  0
 11 17  1  0  0  0  0
 12 23  1  0  0  0  0
 13 19  2  0  0  0  0
 13 20  1  0  0  0  0
 15 34  1  0  0  0  0
 15 35  1  0  0  0  0
 16 18  1  0  0  0  0
 16 36  1  0  0  0  0
 17 18  2  0  0  0  0
 17 37  1  0  0  0  0
 18 38  1  0  0  0  0
 19 24  1  0  0  0  0
 19 39  1  0  0  0  0
 20 25  2  0  0  0  0
 20 40  1  0  0  0  0
 21 24  2  0  0  0  0
 21 25  1  0  0  0  0
 21 26  1  0  0  0  0
 22 28  1  0  0  0  0
 23 27  1  0  0  0  0
 24 41  1  0  0  0  0
 25 42  1  0  0  0  0
 27 43  1  0  0  0  0
 27 44  1  0  0  0  0
 27 45  1  0  0  0  0
 28 46  1  0  0  0  0
 28 47  1  0  0  0  0
 28 48  1  0  0  0  0
M  END
>  <$CLUSTER>
635

>  <INDEX>
417177

$$$$
Chem T&I NSB 0071574
  MOE2020           3D

 49 51  0  0  0  0  0  0  0  0999 V2000
   -2.1070    0.0760    0.1270 S   0  0  0  0  0  0  0  0  0  0  0  0
   -0.8270   -0.9740    0.4440 N   0  0  0  0  0  0  0  0  0  0  0  0
   -1.1680    6.0780    5.8340 C   0  0  0  0  0  0  0  0  0  0  0  0
   -1.6380    4.7580    5.2730 C   0  0  0  0  0  0  0  0  0  0  0  0
    0.4600   -0.5320    0.0780 C   0  0  0  0  0  0  0  0  0  0  0  0
    1.1950   -0.0880    1.1100 N   0  0  0  0  0  0  0  0  0  0  0  0
    2.4240    0.3510    0.7870 C   0  0  0  0  0  0  0  0  0  0  0  0
    2.9520    0.3900   -0.4540 N   0  0  0  0  0  0  0  0  0  0  0  0
   -1.2090    4.5890    3.9620 N   0  0  0  0  0  0  0  0  0  0  0  0
   -1.8280    1.3940    1.3100 C   0  0  0  0  0  0  0  0  0  0  0  0
    0.8790   -0.5420   -1.2350 C   0  0  0  0  0  0  0  0  0  0  0  0
   -1.9710    0.6080   -1.2200 O   0  0  0  0  0  0  0  0  0  0  0  0
   -3.3310   -0.6190    0.5010 O   0  0  0  0  0  0  0  0  0  0  0  0
   -2.0660    6.8540    6.6130 C   0  0  0  0  0  0  0  0  0  0  0  0
    0.1480    6.4770    5.6660 C   0  0  0  0  0  0  0  0  0  0  0  0
    2.1540   -0.0640   -1.4470 C   0  0  0  0  0  0  0  0  0  0  0  0
   -2.3090    3.9890    5.9530 O   0  0  0  0  0  0  0  0  0  0  0  0
   -2.3870    1.3020    2.5760 C   0  0  0  0  0  0  0  0  0  0  0  0
   -1.0990    2.5080    0.9090 C   0  0  0  0  0  0  0  0  0  0  0  0
   -1.5990    8.0510    7.1680 C   0  0  0  0  0  0  0  0  0  0  0  0
   -1.4520    3.4700    3.0990 C   0  0  0  0  0  0  0  0  0  0  0  0
    0.5970    7.6710    6.2270 C   0  0  0  0  0  0  0  0  0  0  0  0
   -2.1910    2.3490    3.4790 C   0  0  0  0  0  0  0  0  0  0  0  0
   -0.9070    3.5510    1.8170 C   0  0  0  0  0  0  0  0  0  0  0  0
   -0.2750    8.4560    6.9750 C   0  0  0  0  0  0  0  0  0  0  0  0
    2.2110    8.1560    5.9880 Cl  0  0  0  0  0  0  0  0  0  0  0  0
   -3.3530    6.3950    6.7350 O   0  0  0  0  0  0  0  0  0  0  0  0
    3.3170    0.8520    1.9140 C   0  0  0  0  0  0  0  0  0  0  0  0
    2.7120   -0.0320   -2.8390 C   0  0  0  0  0  0  0  0  0  0  0  0
   -4.2510    7.1600    7.5290 C   0  0  0  0  0  0  0  0  0  0  0  0
   -0.9750   -1.8750    0.8750 H   0  0  0  0  0  0  0  0  0  0  0  0
   -0.6620    5.3430    3.5710 H   0  0  0  0  0  0  0  0  0  0  0  0
    0.2530   -0.8990   -2.0400 H   0  0  0  0  0  0  0  0  0  0  0  0
    0.8290    5.8600    5.0980 H   0  0  0  0  0  0  0  0  0  0  0  0
   -2.9650    0.4340    2.8590 H   0  0  0  0  0  0  0  0  0  0  0  0
   -0.6880    2.5660   -0.0880 H   0  0  0  0  0  0  0  0  0  0  0  0
   -2.2680    8.6670    7.7510 H   0  0  0  0  0  0  0  0  0  0  0  0
   -2.6120    2.2910    4.4720 H   0  0  0  0  0  0  0  0  0  0  0  0
   -0.3360    4.4210    1.5270 H   0  0  0  0  0  0  0  0  0  0  0  0
    0.0730    9.3820    7.4080 H   0  0  0  0  0  0  0  0  0  0  0  0
    2.7850    0.7720    2.8620 H   0  0  0  0  0  0  0  0  0  0  0  0
    3.5810    1.8940    1.7320 H   0  0  0  0  0  0  0  0  0  0  0  0
    4.2240    0.2490    1.9540 H   0  0  0  0  0  0  0  0  0  0  0  0
    3.7240    0.3730   -2.8160 H   0  0  0  0  0  0  0  0  0  0  0  0
    2.0830    0.5970   -3.4680 H   0  0  0  0  0  0  0  0  0  0  0  0
    2.7350   -1.0430   -3.2450 H   0  0  0  0  0  0  0  0  0  0  0  0
   -5.2290    6.6800    7.5360 H   0  0  0  0  0  0  0  0  0  0  0  0
   -4.3410    8.1630    7.1110 H   0  0  0  0  0  0  0  0  0  0  0  0
   -3.8700    7.2240    8.5480 H   0  0  0  0  0  0  0  0  0  0  0  0
  1  2  1  0  0  0  0
  1 10  1  0  0  0  0
  1 12  2  0  0  0  0
  1 13  2  0  0  0  0
  2  5  1  0  0  0  0
  2 31  1  0  0  0  0
  3  4  1  0  0  0  0
  3 14  2  0  0  0  0
  3 15  1  0  0  0  0
  4  9  1  0  0  0  0
  4 17  2  0  0  0  0
  5  6  1  0  0  0  0
  5 11  2  0  0  0  0
  6  7  2  0  0  0  0
  7  8  1  0  0  0  0
  7 28  1  0  0  0  0
  8 16  2  0  0  0  0
  9 21  1  0  0  0  0
  9 32  1  0  0  0  0
 10 18  2  0  0  0  0
 10 19  1  0  0  0  0
 11 16  1  0  0  0  0
 11 33  1  0  0  0  0
 14 20  1  0  0  0  0
 14 27  1  0  0  0  0
 15 22  2  0  0  0  0
 15 34  1  0  0  0  0
 16 29  1  0  0  0  0
 18 23  1  0  0  0  0
 18 35  1  0  0  0  0
 19 24  2  0  0  0  0
 19 36  1  0  0  0  0
 20 25  2  0  0  0  0
 20 37  1  0  0  0  0
 21 23  2  0  0  0  0
 21 24  1  0  0  0  0
 22 25  1  0  0  0  0
 22 26  1  0  0  0  0
 23 38  1  0  0  0  0
 24 39  1  0  0  0  0
 25 40  1  0  0  0  0
 27 30  1  0  0  0  0
 28 41  1  0  0  0  0
 28 42  1  0  0  0  0
 28 43  1  0  0  0  0
 29 44  1  0  0  0  0
 29 45  1  0  0  0  0
 29 46  1  0  0  0  0
 30 47  1  0  0  0  0
 30 48  1  0  0  0  0
 30 49  1  0  0  0  0
M  END
>  <$CLUSTER>
636

>  <INDEX>
574624

$$$$
Enamine T0508-8978
  MOE2020           3D

 45 48  0  0  0  0  0  0  0  0999 V2000
    0.8120   -1.3500    0.3480 S   0  0  0  0  0  0  0  0  0  0  0  0
   -0.5620   -1.2390   -0.7210 C   0  0  0  0  0  0  0  0  0  0  0  0
   -1.1820   -0.0210   -0.9470 C   0  0  0  0  0  0  0  0  0  0  0  0
    1.1630    0.2380    0.9800 C   0  0  0  0  0  0  0  0  0  0  0  0
   -0.7490    1.2460   -0.3220 C   0  0  0  0  0  0  0  0  0  0  0  0
    0.3950    1.3290    0.6090 C   0  0  0  0  0  0  0  0  0  0  0  0
   -1.0150   -2.4110   -1.3420 C   0  0  0  0  0  0  0  0  0  0  0  0
   -2.6270   -3.5560   -2.8790 C   0  0  0  0  0  0  0  0  0  0  0  0
    1.9510   -1.7360   -0.4720 O   0  0  0  0  0  0  0  0  0  0  0  0
    0.3970   -2.1680    1.4790 O   0  0  0  0  0  0  0  0  0  0  0  0
   -2.1090   -2.3600   -2.2020 C   0  0  0  0  0  0  0  0  0  0  0  0
   -2.2860    0.0170   -1.8170 C   0  0  0  0  0  0  0  0  0  0  0  0
   -1.3900   -6.9950   -2.6520 C   0  0  0  0  0  0  0  0  0  0  0  0
   -1.9180   -4.6620   -2.5590 O   0  0  0  0  0  0  0  0  0  0  0  0
   -1.3690    2.2760   -0.5880 O   0  0  0  0  0  0  0  0  0  0  0  0
   -1.7180   -8.2260   -3.1860 N   0  0  0  0  0  0  0  0  0  0  0  0
   -2.7450   -1.1450   -2.4400 C   0  0  0  0  0  0  0  0  0  0  0  0
   -3.5830   -3.5560   -3.6400 O   0  0  0  0  0  0  0  0  0  0  0  0
   -0.4630   -6.8210   -1.8720 O   0  0  0  0  0  0  0  0  0  0  0  0
   -2.3110   -5.8990   -3.1470 C   0  0  0  0  0  0  0  0  0  0  0  0
   -1.1270   -9.4930   -2.9940 C   0  0  0  0  0  0  0  0  0  0  0  0
    0.7190    2.5890    1.1450 C   0  0  0  0  0  0  0  0  0  0  0  0
    2.2400    0.3740    1.8680 C   0  0  0  0  0  0  0  0  0  0  0  0
   -1.6750  -10.5900   -3.6740 C   0  0  0  0  0  0  0  0  0  0  0  0
   -0.0250   -9.7000   -2.1580 C   0  0  0  0  0  0  0  0  0  0  0  0
    1.7890    2.7350    2.0300 C   0  0  0  0  0  0  0  0  0  0  0  0
    2.5500    1.6270    2.3920 C   0  0  0  0  0  0  0  0  0  0  0  0
   -1.1330  -11.8690   -3.5220 C   0  0  0  0  0  0  0  0  0  0  0  0
    0.5170  -10.9810   -2.0080 C   0  0  0  0  0  0  0  0  0  0  0  0
   -0.0360  -12.0630   -2.6890 C   0  0  0  0  0  0  0  0  0  0  0  0
   -0.5170   -3.3510   -1.1540 H   0  0  0  0  0  0  0  0  0  0  0  0
   -2.7850    0.9560   -2.0060 H   0  0  0  0  0  0  0  0  0  0  0  0
   -2.5080   -8.2180   -3.8150 H   0  0  0  0  0  0  0  0  0  0  0  0
   -3.5940   -1.1010   -3.1070 H   0  0  0  0  0  0  0  0  0  0  0  0
   -3.3380   -6.1290   -2.8630 H   0  0  0  0  0  0  0  0  0  0  0  0
   -2.2420   -5.8260   -4.2320 H   0  0  0  0  0  0  0  0  0  0  0  0
    0.1330    3.4530    0.8690 H   0  0  0  0  0  0  0  0  0  0  0  0
    2.8270   -0.4890    2.1450 H   0  0  0  0  0  0  0  0  0  0  0  0
   -2.5260  -10.4450   -4.3230 H   0  0  0  0  0  0  0  0  0  0  0  0
    0.4100   -8.8670   -1.6260 H   0  0  0  0  0  0  0  0  0  0  0  0
    2.0260    3.7080    2.4340 H   0  0  0  0  0  0  0  0  0  0  0  0
    3.3780    1.7380    3.0770 H   0  0  0  0  0  0  0  0  0  0  0  0
   -1.5650  -12.7060   -4.0510 H   0  0  0  0  0  0  0  0  0  0  0  0
    1.3680  -11.1320   -1.3610 H   0  0  0  0  0  0  0  0  0  0  0  0
    0.3860  -13.0500   -2.5710 H   0  0  0  0  0  0  0  0  0  0  0  0
  1  2  1  0  0  0  0
  1  4  1  0  0  0  0
  1  9  2  0  0  0  0
  1 10  2  0  0  0  0
  2  3  1  0  0  0  0
  2  7  2  0  0  0  0
  3  5  1  0  0  0  0
  3 12  2  0  0  0  0
  4  6  2  0  0  0  0
  4 23  1  0  0  0  0
  5  6  1  0  0  0  0
  5 15  2  0  0  0  0
  6 22  1  0  0  0  0
  7 11  1  0  0  0  0
  7 31  1  0  0  0  0
  8 11  1  0  0  0  0
  8 14  1  0  0  0  0
  8 18  2  0  0  0  0
 11 17  2  0  0  0  0
 12 17  1  0  0  0  0
 12 32  1  0  0  0  0
 13 16  1  0  0  0  0
 13 19  2  0  0  0  0
 13 20  1  0  0  0  0
 14 20  1  0  0  0  0
 16 21  1  0  0  0  0
 16 33  1  0  0  0  0
 17 34  1  0  0  0  0
 20 35  1  0  0  0  0
 20 36  1  0  0  0  0
 21 24  2  0  0  0  0
 21 25  1  0  0  0  0
 22 26  2  0  0  0  0
 22 37  1  0  0  0  0
 23 27  2  0  0  0  0
 23 38  1  0  0  0  0
 24 28  1  0  0  0  0
 24 39  1  0  0  0  0
 25 29  2  0  0  0  0
 25 40  1  0  0  0  0
 26 27  1  0  0  0  0
 26 41  1  0  0  0  0
 27 42  1  0  0  0  0
 28 30  2  0  0  0  0
 28 43  1  0  0  0  0
 29 30  1  0  0  0  0
 29 44  1  0  0  0  0
 30 45  1  0  0  0  0
M  END
>  <$CLUSTER>
637

>  <INDEX>
418944

$$$$
Enamine T0507-0768
  MOE2020           3D

 38 39  0  0  0  0  0  0  0  0999 V2000
   -1.7940   -0.0170    0.2020 C   0  0  0  0  0  0  0  0  0  0  0  0
   -0.3390   -0.0260    0.0180 C   0  0  0  0  0  0  0  0  0  0  0  0
   -5.1700   -2.4710    2.5070 N   0  0  0  0  0  0  0  0  0  0  0  0
   -5.8000   -3.4320    3.3200 C   0  0  0  0  0  0  0  0  0  0  0  0
   -7.1940   -3.3760    3.4590 C   0  0  0  0  0  0  0  0  0  0  0  0
   -3.8320   -2.3060    2.2080 C   0  0  0  0  0  0  0  0  0  0  0  0
   -7.8880   -4.2910    4.2450 C   0  0  0  0  0  0  0  0  0  0  0  0
   -2.2040   -1.0170    1.0140 O   0  0  0  0  0  0  0  0  0  0  0  0
    0.2310    0.9560   -0.8010 C   0  0  0  0  0  0  0  0  0  0  0  0
    0.4860   -0.9750    0.6310 C   0  0  0  0  0  0  0  0  0  0  0  0
   -2.5490    0.7940   -0.3140 O   0  0  0  0  0  0  0  0  0  0  0  0
   -2.9450   -3.0290    2.6430 O   0  0  0  0  0  0  0  0  0  0  0  0
    1.6120    0.9870   -1.0050 C   0  0  0  0  0  0  0  0  0  0  0  0
    1.8670   -0.9400    0.4230 C   0  0  0  0  0  0  0  0  0  0  0  0
   -5.1080   -4.4390    3.9980 C   0  0  0  0  0  0  0  0  0  0  0  0
   -7.1870   -5.2910    4.9160 C   0  0  0  0  0  0  0  0  0  0  0  0
   -3.6000   -1.1290    1.2810 C   0  0  0  0  0  0  0  0  0  0  0  0
    2.4300    0.0390   -0.3930 C   0  0  0  0  0  0  0  0  0  0  0  0
   -7.8930   -2.4210    2.8230 F   0  0  0  0  0  0  0  0  0  0  0  0
   -5.7990   -5.3630    4.7900 C   0  0  0  0  0  0  0  0  0  0  0  0
   -7.9110   -6.1320    5.6510 F   0  0  0  0  0  0  0  0  0  0  0  0
    2.2150    2.0370   -1.8810 C   0  0  0  0  0  0  0  0  0  0  0  0
    2.7410   -1.9600    1.0810 C   0  0  0  0  0  0  0  0  0  0  0  0
   -5.7910   -1.8000    2.0770 H   0  0  0  0  0  0  0  0  0  0  0  0
   -8.9620   -4.2260    4.3340 H   0  0  0  0  0  0  0  0  0  0  0  0
   -0.4000    1.6920   -1.2770 H   0  0  0  0  0  0  0  0  0  0  0  0
    0.0550   -1.7350    1.2660 H   0  0  0  0  0  0  0  0  0  0  0  0
   -4.0340   -4.5050    3.9100 H   0  0  0  0  0  0  0  0  0  0  0  0
   -3.9560   -0.2140    1.7550 H   0  0  0  0  0  0  0  0  0  0  0  0
   -4.1390   -1.2870    0.3470 H   0  0  0  0  0  0  0  0  0  0  0  0
    3.4980    0.0630   -0.5510 H   0  0  0  0  0  0  0  0  0  0  0  0
   -5.2540   -6.1380    5.3080 H   0  0  0  0  0  0  0  0  0  0  0  0
    1.4270    2.6830   -2.2680 H   0  0  0  0  0  0  0  0  0  0  0  0
    2.7360    1.5620   -2.7120 H   0  0  0  0  0  0  0  0  0  0  0  0
    2.9210    2.6320   -1.3020 H   0  0  0  0  0  0  0  0  0  0  0  0
    2.1260   -2.6370    1.6750 H   0  0  0  0  0  0  0  0  0  0  0  0
    3.4600   -1.4590    1.7290 H   0  0  0  0  0  0  0  0  0  0  0  0
    3.2740   -2.5280    0.3190 H   0  0  0  0  0  0  0  0  0  0  0  0
  1  2  1  0  0  0  0
  1  8  1  0  0  0  0
  1 11  2  0  0  0  0
  2  9  2  0  0  0  0
  2 10  1  0  0  0  0
  3  4  1  0  0  0  0
  3  6  1  0  0  0  0
  3 24  1  0  0  0  0
  4  5  2  0  0  0  0
  4 15  1  0  0  0  0
  5  7  1  0  0  0  0
  5 19  1  0  0  0  0
  6 12  2  0  0  0  0
  6 17  1  0  0  0  0
  7 16  2  0  0  0  0
  7 25  1  0  0  0  0
  8 17  1  0  0  0  0
  9 13  1  0  0  0  0
  9 26  1  0  0  0  0
 10 14  2  0  0  0  0
 10 27  1  0  0  0  0
 13 18  2  0  0  0  0
 13 22  1  0  0  0  0
 14 18  1  0  0  0  0
 14 23  1  0  0  0  0
 15 20  2  0  0  0  0
 15 28  1  0  0  0  0
 16 20  1  0  0  0  0
 16 21  1  0  0  0  0
 17 29  1  0  0  0  0
 17 30  1  0  0  0  0
 18 31  1  0  0  0  0
 20 32  1  0  0  0  0
 22 33  1  0  0  0  0
 22 34  1  0  0  0  0
 22 35  1  0  0  0  0
 23 36  1  0  0  0  0
 23 37  1  0  0  0  0
 23 38  1  0  0  0  0
M  END
>  <$CLUSTER>
638

>  <INDEX>
415011

$$$$
Enamine T0509-8799
  MOE2020           3D

 43 44  0  0  0  0  0  0  0  0999 V2000
   -0.1730   -0.3370   -0.0150 C   0  0  0  0  0  0  0  0  0  0  0  0
    0.5680    0.8230   -0.1760 C   0  0  0  0  0  0  0  0  0  0  0  0
    1.0630    0.9010   -1.4430 O   0  0  0  0  0  0  0  0  0  0  0  0
   -0.1160   -0.9990   -1.2760 C   0  0  0  0  0  0  0  0  0  0  0  0
   -0.8470   -0.7520    1.1970 C   0  0  0  0  0  0  0  0  0  0  0  0
   -4.2760   -5.5500    2.9070 C   0  0  0  0  0  0  0  0  0  0  0  0
    0.6440   -0.2070   -2.1020 C   0  0  0  0  0  0  0  0  0  0  0  0
   -3.5420   -4.3460    2.8300 N   0  0  0  0  0  0  0  0  0  0  0  0
   -2.8360   -3.7790    1.7850 C   0  0  0  0  0  0  0  0  0  0  0  0
   -4.3950   -6.4180    1.8140 C   0  0  0  0  0  0  0  0  0  0  0  0
   -1.4980   -1.9380    1.0620 O   0  0  0  0  0  0  0  0  0  0  0  0
   -4.9070   -5.8860    4.1250 C   0  0  0  0  0  0  0  0  0  0  0  0
   -0.8450   -0.1180    2.2440 O   0  0  0  0  0  0  0  0  0  0  0  0
   -2.7420   -4.2910    0.6770 O   0  0  0  0  0  0  0  0  0  0  0  0
   -5.6410   -7.0750    4.2250 C   0  0  0  0  0  0  0  0  0  0  0  0
   -2.2020   -2.4600    2.1760 C   0  0  0  0  0  0  0  0  0  0  0  0
   -5.1280   -7.6000    1.9260 C   0  0  0  0  0  0  0  0  0  0  0  0
   -5.7490   -7.9280    3.1270 C   0  0  0  0  0  0  0  0  0  0  0  0
    0.9120    1.9470    0.7210 C   0  0  0  0  0  0  0  0  0  0  0  0
   -4.7460   -4.9860    5.1520 O   0  0  0  0  0  0  0  0  0  0  0  0
   -5.3080   -8.5210    0.9150 O   0  0  0  0  0  0  0  0  0  0  0  0
    0.9920   -0.4290   -3.4520 C   0  0  0  0  0  0  0  0  0  0  0  0
   -5.3690   -5.2910    6.3940 C   0  0  0  0  0  0  0  0  0  0  0  0
   -4.6940   -8.2360   -0.3360 C   0  0  0  0  0  0  0  0  0  0  0  0
   -0.5800   -1.9400   -1.5320 H   0  0  0  0  0  0  0  0  0  0  0  0
   -3.5310   -3.8070    3.6840 H   0  0  0  0  0  0  0  0  0  0  0  0
   -3.9160   -6.1710    0.8780 H   0  0  0  0  0  0  0  0  0  0  0  0
   -6.1250   -7.3320    5.1560 H   0  0  0  0  0  0  0  0  0  0  0  0
   -1.5110   -2.6180    3.0040 H   0  0  0  0  0  0  0  0  0  0  0  0
   -2.9780   -1.7570    2.4800 H   0  0  0  0  0  0  0  0  0  0  0  0
   -6.3150   -8.8440    3.2090 H   0  0  0  0  0  0  0  0  0  0  0  0
    0.4660    1.7790    1.7010 H   0  0  0  0  0  0  0  0  0  0  0  0
    0.5280    2.8770    0.3020 H   0  0  0  0  0  0  0  0  0  0  0  0
    1.9950    2.0130    0.8210 H   0  0  0  0  0  0  0  0  0  0  0  0
    1.6060    0.3970   -3.8100 H   0  0  0  0  0  0  0  0  0  0  0  0
    0.0860   -0.4960   -4.0550 H   0  0  0  0  0  0  0  0  0  0  0  0
    1.5520   -1.3600   -3.5340 H   0  0  0  0  0  0  0  0  0  0  0  0
   -5.1590   -4.4970    7.1100 H   0  0  0  0  0  0  0  0  0  0  0  0
   -4.9790   -6.2350    6.7740 H   0  0  0  0  0  0  0  0  0  0  0  0
   -6.4460   -5.3740    6.2490 H   0  0  0  0  0  0  0  0  0  0  0  0
   -4.9140   -9.0390   -1.0400 H   0  0  0  0  0  0  0  0  0  0  0  0
   -3.6150   -8.1560   -0.2020 H   0  0  0  0  0  0  0  0  0  0  0  0
   -5.0820   -7.2950   -0.7250 H   0  0  0  0  0  0  0  0  0  0  0  0
  1  2  2  0  0  0  0
  1  4  1  0  0  0  0
  1  5  1  0  0  0  0
  2  3  1  0  0  0  0
  2 19  1  0  0  0  0
  3  7  1  0  0  0  0
  4  7  2  0  0  0  0
  4 25  1  0  0  0  0
  5 11  1  0  0  0  0
  5 13  2  0  0  0  0
  6  8  1  0  0  0  0
  6 10  1  0  0  0  0
  6 12  2  0  0  0  0
  7 22  1  0  0  0  0
  8  9  1  0  0  0  0
  8 26  1  0  0  0  0
  9 14  2  0  0  0  0
  9 16  1  0  0  0  0
 10 17  2  0  0  0  0
 10 27  1  0  0  0  0
 11 16  1  0  0  0  0
 12 15  1  0  0  0  0
 12 20  1  0  0  0  0
 15 18  2  0  0  0  0
 15 28  1  0  0  0  0
 16 29  1  0  0  0  0
 16 30  1  0  0  0  0
 17 18  1  0  0  0  0
 17 21  1  0  0  0  0
 18 31  1  0  0  0  0
 19 32  1  0  0  0  0
 19 33  1  0  0  0  0
 19 34  1  0  0  0  0
 20 23  1  0  0  0  0
 21 24  1  0  0  0  0
 22 35  1  0  0  0  0
 22 36  1  0  0  0  0
 22 37  1  0  0  0  0
 23 38  1  0  0  0  0
 23 39  1  0  0  0  0
 23 40  1  0  0  0  0
 24 41  1  0  0  0  0
 24 42  1  0  0  0  0
 24 43  1  0  0  0  0
M  END
>  <$CLUSTER>
639

>  <INDEX>
421584

$$$$
Enamine T0511-9553
  MOE2020           3D

 38 39  0  0  0  0  0  0  0  0999 V2000
   -1.9000   -0.9740   -0.0100 C   0  0  0  0  0  0  0  0  0  0  0  0
   -5.1050   -2.4600    0.9990 C   0  0  0  0  0  0  0  0  0  0  0  0
   -0.8860   -0.1660    0.5470 N   0  0  0  0  0  0  0  0  0  0  0  0
   -4.0140   -2.0920    0.2970 O   0  0  0  0  0  0  0  0  0  0  0  0
   -6.0180   -3.3080    0.1660 C   0  0  0  0  0  0  0  0  0  0  0  0
   -3.0660   -1.3150    0.8910 C   0  0  0  0  0  0  0  0  0  0  0  0
   -1.9180   -1.4040   -1.1660 O   0  0  0  0  0  0  0  0  0  0  0  0
   -5.3270   -2.1480    2.1610 O   0  0  0  0  0  0  0  0  0  0  0  0
    0.3990   -0.0160   -0.1150 C   0  0  0  0  0  0  0  0  0  0  0  0
   -7.1920   -3.7630    0.7670 C   0  0  0  0  0  0  0  0  0  0  0  0
   -5.7210   -3.6330   -1.1470 C   0  0  0  0  0  0  0  0  0  0  0  0
   -7.7850   -4.8880   -1.2890 C   0  0  0  0  0  0  0  0  0  0  0  0
   -6.6090   -4.4270   -1.8770 C   0  0  0  0  0  0  0  0  0  0  0  0
   -8.0770   -4.5570    0.0330 C   0  0  0  0  0  0  0  0  0  0  0  0
   -9.0740   -6.0640   -2.4100 I   0  0  0  0  0  0  0  0  0  0  0  0
   -1.1020    0.5790    1.8070 C   0  0  0  0  0  0  0  0  0  0  0  0
    0.8770   -0.9820   -1.0190 C   0  0  0  0  0  0  0  0  0  0  0  0
    1.2390    1.0820    0.1480 C   0  0  0  0  0  0  0  0  0  0  0  0
   -1.8140    1.9070    1.5810 C   0  0  0  0  0  0  0  0  0  0  0  0
    2.1190   -0.8430   -1.6500 C   0  0  0  0  0  0  0  0  0  0  0  0
    2.4800    1.2220   -0.4850 C   0  0  0  0  0  0  0  0  0  0  0  0
    2.9190    0.2620   -1.3870 C   0  0  0  0  0  0  0  0  0  0  0  0
   -3.5360   -0.3850    1.2110 H   0  0  0  0  0  0  0  0  0  0  0  0
   -2.6830   -1.8470    1.7620 H   0  0  0  0  0  0  0  0  0  0  0  0
   -7.4150   -3.5040    1.7910 H   0  0  0  0  0  0  0  0  0  0  0  0
   -4.8100   -3.2750   -1.6030 H   0  0  0  0  0  0  0  0  0  0  0  0
   -6.3830   -4.6840   -2.9010 H   0  0  0  0  0  0  0  0  0  0  0  0
   -8.9880   -4.9140    0.4900 H   0  0  0  0  0  0  0  0  0  0  0  0
   -0.1340    0.7750    2.2680 H   0  0  0  0  0  0  0  0  0  0  0  0
   -1.7070   -0.0330    2.4760 H   0  0  0  0  0  0  0  0  0  0  0  0
    0.2720   -1.8510   -1.2310 H   0  0  0  0  0  0  0  0  0  0  0  0
    0.9190    1.8340    0.8540 H   0  0  0  0  0  0  0  0  0  0  0  0
   -1.2190    2.5290    0.9120 H   0  0  0  0  0  0  0  0  0  0  0  0
   -1.9410    2.4180    2.5350 H   0  0  0  0  0  0  0  0  0  0  0  0
   -2.7910    1.7240    1.1340 H   0  0  0  0  0  0  0  0  0  0  0  0
    2.4570   -1.5980   -2.3440 H   0  0  0  0  0  0  0  0  0  0  0  0
    3.0990    2.0810   -0.2710 H   0  0  0  0  0  0  0  0  0  0  0  0
    3.8740    0.3730   -1.8800 H   0  0  0  0  0  0  0  0  0  0  0  0
  1  3  1  0  0  0  0
  1  6  1  0  0  0  0
  1  7  2  0  0  0  0
  2  4  1  0  0  0  0
  2  5  1  0  0  0  0
  2  8  2  0  0  0  0
  3  9  1  0  0  0  0
  3 16  1  0  0  0  0
  4  6  1  0  0  0  0
  5 10  1  0  0  0  0
  5 11  2  0  0  0  0
  6 23  1  0  0  0  0
  6 24  1  0  0  0  0
  9 17  2  0  0  0  0
  9 18  1  0  0  0  0
 10 14  2  0  0  0  0
 10 25  1  0  0  0  0
 11 13  1  0  0  0  0
 11 26  1  0  0  0  0
 12 13  2  0  0  0  0
 12 14  1  0  0  0  0
 12 15  1  0  0  0  0
 13 27  1  0  0  0  0
 14 28  1  0  0  0  0
 16 19  1  0  0  0  0
 16 29  1  0  0  0  0
 16 30  1  0  0  0  0
 17 20  1  0  0  0  0
 17 31  1  0  0  0  0
 18 21  2  0  0  0  0
 18 32  1  0  0  0  0
 19 33  1  0  0  0  0
 19 34  1  0  0  0  0
 19 35  1  0  0  0  0
 20 22  2  0  0  0  0
 20 36  1  0  0  0  0
 21 22  1  0  0  0  0
 21 37  1  0  0  0  0
 22 38  1  0  0  0  0
M  END
>  <$CLUSTER>
640

>  <INDEX>
425637

$$$$
Princeton Biomolecular OSSK_245042
  MOE2020           3D

 53 56  0  0  1  0  0  0  0  0999 V2000
    1.8780   -0.2130   -0.2130 C   0  0  0  0  0  0  0  0  0  0  0  0
    2.4160    1.0160   -0.0720 C   0  0  0  0  0  0  0  0  0  0  0  0
   -0.0820    0.5770    1.2170 C   0  0  0  0  0  0  0  0  0  0  0  0
    2.6470   -1.2710   -0.9210 C   0  0  0  0  0  0  0  0  0  0  0  0
    0.5040   -0.5580    0.3660 C   0  0  3  0  0  0  0  0  0  0  0  0
    3.6390    1.3060   -0.6320 N   0  0  0  0  0  0  0  0  0  0  0  0
    3.8590   -0.8620   -1.4580 N   0  0  0  0  0  0  0  0  0  0  0  0
    0.5340    1.7750    1.3060 C   0  0  0  0  0  0  0  0  0  0  0  0
    1.7340    1.9800    0.6470 N   0  0  0  0  0  0  0  0  0  0  0  0
    4.4060    0.4090   -1.3500 C   0  0  0  0  0  0  0  0  0  0  0  0
   -0.4810   -0.9730   -0.7260 C   0  0  0  0  0  0  0  0  0  0  0  0
   -1.3620    0.3340    1.9080 C   0  0  0  0  0  0  0  0  0  0  0  0
    2.2360   -2.4250   -1.0090 O   0  0  0  0  0  0  0  0  0  0  0  0
   -0.8150   -0.1040   -1.7790 C   0  0  0  0  0  0  0  0  0  0  0  0
    5.4920    0.7090   -1.8480 O   0  0  0  0  0  0  0  0  0  0  0  0
   -2.3480    1.0530    1.8450 O   0  0  0  0  0  0  0  0  0  0  0  0
   -1.7230   -0.4980   -2.7640 C   0  0  0  0  0  0  0  0  0  0  0  0
   -2.0520    0.3050   -3.8310 O   0  0  0  0  0  0  0  0  0  0  0  0
   -2.1920   -2.4950    4.0870 C   0  0  0  0  0  0  0  0  0  0  0  0
   -2.9100   -3.5960    3.9230 C   0  0  0  0  0  0  0  0  0  0  0  0
   -1.2930   -0.8150    2.6210 O   0  0  0  0  0  0  0  0  0  0  0  0
    0.0470    2.9460    2.1180 C   0  0  0  0  0  0  0  0  0  0  0  0
   -2.3840    1.6150   -3.5650 C   0  0  0  0  0  0  0  0  0  0  0  0
   -1.0840   -2.2400   -0.6820 C   0  0  0  0  0  0  0  0  0  0  0  0
   -1.9910   -2.6300   -1.6690 C   0  0  0  0  0  0  0  0  0  0  0  0
   -2.4700   -1.1970    3.3550 C   0  0  0  0  0  0  0  0  0  0  0  0
   -2.3100   -1.7600   -2.7090 C   0  0  0  0  0  0  0  0  0  0  0  0
   -3.3190    1.9710   -2.5880 C   0  0  0  0  0  0  0  0  0  0  0  0
   -1.8000    2.5960   -4.3700 C   0  0  0  0  0  0  0  0  0  0  0  0
   -2.1260    3.9380   -4.1740 C   0  0  0  0  0  0  0  0  0  0  0  0
   -3.6400    3.3150   -2.3960 C   0  0  0  0  0  0  0  0  0  0  0  0
   -3.0410    4.2970   -3.1850 C   0  0  0  0  0  0  0  0  0  0  0  0
    0.6620   -1.4100    1.0280 H   0  0  0  0  0  0  0  0  0  0  0  0
    4.0020    2.2410   -0.5090 H   0  0  0  0  0  0  0  0  0  0  0  0
    4.3900   -1.5500   -1.9730 H   0  0  0  0  0  0  0  0  0  0  0  0
    2.1420    2.9030    0.6950 H   0  0  0  0  0  0  0  0  0  0  0  0
   -0.3660    0.8770   -1.8270 H   0  0  0  0  0  0  0  0  0  0  0  0
   -1.3640   -2.5240    4.7800 H   0  0  0  0  0  0  0  0  0  0  0  0
   -2.6610   -4.4900    4.4750 H   0  0  0  0  0  0  0  0  0  0  0  0
   -3.7450   -3.5990    3.2380 H   0  0  0  0  0  0  0  0  0  0  0  0
    0.7400    3.7800    2.0040 H   0  0  0  0  0  0  0  0  0  0  0  0
   -0.0100    2.6610    3.1690 H   0  0  0  0  0  0  0  0  0  0  0  0
   -0.9410    3.2440    1.7690 H   0  0  0  0  0  0  0  0  0  0  0  0
   -0.8440   -2.9190    0.1230 H   0  0  0  0  0  0  0  0  0  0  0  0
   -2.4460   -3.6080   -1.6260 H   0  0  0  0  0  0  0  0  0  0  0  0
   -2.7220   -0.4180    4.0740 H   0  0  0  0  0  0  0  0  0  0  0  0
   -3.3020   -1.3370    2.6650 H   0  0  0  0  0  0  0  0  0  0  0  0
   -3.0120   -2.0640   -3.4720 H   0  0  0  0  0  0  0  0  0  0  0  0
   -3.7900    1.2090   -1.9850 H   0  0  0  0  0  0  0  0  0  0  0  0
   -1.0980    2.3160   -5.1420 H   0  0  0  0  0  0  0  0  0  0  0  0
   -1.6690    4.7000   -4.7890 H   0  0  0  0  0  0  0  0  0  0  0  0
   -4.3530    3.5960   -1.6350 H   0  0  0  0  0  0  0  0  0  0  0  0
   -3.2860    5.3370   -3.0300 H   0  0  0  0  0  0  0  0  0  0  0  0
  1  2  2  0  0  0  0
  1  4  1  0  0  0  0
  1  5  1  0  0  0  0
  2  6  1  0  0  0  0
  2  9  1  0  0  0  0
  3  5  1  0  0  0  0
  3  8  2  0  0  0  0
  3 12  1  0  0  0  0
  4  7  1  0  0  0  0
  4 13  2  0  0  0  0
  5 11  1  0  0  0  0
  5 33  1  0  0  0  0
  6 10  1  0  0  0  0
  6 34  1  0  0  0  0
  7 10  1  0  0  0  0
  7 35  1  0  0  0  0
  8  9  1  0  0  0  0
  8 22  1  0  0  0  0
  9 36  1  0  0  0  0
 10 15  2  0  0  0  0
 11 14  2  0  0  0  0
 11 24  1  0  0  0  0
 12 16  2  0  0  0  0
 12 21  1  0  0  0  0
 14 17  1  0  0  0  0
 14 37  1  0  0  0  0
 17 18  1  0  0  0  0
 17 27  2  0  0  0  0
 18 23  1  0  0  0  0
 19 20  2  0  0  0  0
 19 26  1  0  0  0  0
 19 38  1  0  0  0  0
 20 39  1  0  0  0  0
 20 40  1  0  0  0  0
 21 26  1  0  0  0  0
 22 41  1  0  0  0  0
 22 42  1  0  0  0  0
 22 43  1  0  0  0  0
 23 28  1  0  0  0  0
 23 29  2  0  0  0  0
 24 25  2  0  0  0  0
 24 44  1  0  0  0  0
 25 27  1  0  0  0  0
 25 45  1  0  0  0  0
 26 46  1  0  0  0  0
 26 47  1  0  0  0  0
 27 48  1  0  0  0  0
 28 31  2  0  0  0  0
 28 49  1  0  0  0  0
 29 30  1  0  0  0  0
 29 50  1  0  0  0  0
 30 32  2  0  0  0  0
 30 51  1  0  0  0  0
 31 32  1  0  0  0  0
 31 52  1  0  0  0  0
 32 53  1  0  0  0  0
M  END
>  <$CLUSTER>
641

>  <INDEX>
579894

$$$$
Chem T&I ARAK0118211
  MOE2020           3D

 50 52  0  0  0  0  0  0  0  0999 V2000
    4.1050   -1.4500   -0.6190 S   0  0  0  0  0  0  0  0  0  0  0  0
    4.6630   -1.4540    0.9590 N   0  0  0  0  0  0  0  0  0  0  0  0
    2.4480   -0.8760   -0.4530 C   0  0  0  0  0  0  0  0  0  0  0  0
    4.0720   -2.8290   -1.0750 O   0  0  0  0  0  0  0  0  0  0  0  0
    4.8720   -0.4600   -1.3540 O   0  0  0  0  0  0  0  0  0  0  0  0
   -1.5220    0.4830   -0.1640 N   0  0  0  0  0  0  0  0  0  0  0  0
    4.8730   -0.1420    1.6270 C   0  0  0  0  0  0  0  0  0  0  0  0
    4.0950   -2.4560    1.8990 C   0  0  0  0  0  0  0  0  0  0  0  0
   -1.9280    0.7850    1.0330 C   0  0  0  0  0  0  0  0  0  0  0  0
    1.4120   -1.7880   -0.2480 C   0  0  0  0  0  0  0  0  0  0  0  0
    2.1670    0.4860   -0.5660 C   0  0  0  0  0  0  0  0  0  0  0  0
   -0.1940    0.0300   -0.2480 C   0  0  0  0  0  0  0  0  0  0  0  0
   -3.3230    1.2810    1.2660 C   0  0  0  0  0  0  0  0  0  0  0  0
   -5.8830    2.2060    1.8000 C   0  0  0  0  0  0  0  0  0  0  0  0
    0.8480    0.9360   -0.4690 C   0  0  0  0  0  0  0  0  0  0  0  0
    0.0940   -1.3360   -0.1500 C   0  0  0  0  0  0  0  0  0  0  0  0
    5.7200   -0.2570    2.8910 C   0  0  0  0  0  0  0  0  0  0  0  0
    4.9270   -2.6100    3.1670 C   0  0  0  0  0  0  0  0  0  0  0  0
   -4.2180    1.4330    0.2250 C   0  0  0  0  0  0  0  0  0  0  0  0
   -3.6810    1.5830    2.5830 C   0  0  0  0  0  0  0  0  0  0  0  0
   -5.5080    1.8990    0.4910 C   0  0  0  0  0  0  0  0  0  0  0  0
   -4.9710    2.0480    2.8450 C   0  0  0  0  0  0  0  0  0  0  0  0
    5.1390   -1.2720    3.8780 C   0  0  0  0  0  0  0  0  0  0  0  0
   -7.1820    2.6560    1.9350 O   0  0  0  0  0  0  0  0  0  0  0  0
   -7.6170    2.9840    3.2500 C   0  0  0  0  0  0  0  0  0  0  0  0
    6.0440   -1.4340    5.0970 C   0  0  0  0  0  0  0  0  0  0  0  0
    3.9010    0.2730    1.8940 H   0  0  0  0  0  0  0  0  0  0  0  0
    5.3750    0.5280    0.9300 H   0  0  0  0  0  0  0  0  0  0  0  0
    4.0470   -3.4210    1.3940 H   0  0  0  0  0  0  0  0  0  0  0  0
    3.0890   -2.1420    2.1780 H   0  0  0  0  0  0  0  0  0  0  0  0
   -1.2530    0.6770    1.8690 H   0  0  0  0  0  0  0  0  0  0  0  0
    1.6290   -2.8430   -0.1650 H   0  0  0  0  0  0  0  0  0  0  0  0
    2.9680    1.1920   -0.7280 H   0  0  0  0  0  0  0  0  0  0  0  0
    0.6320    1.9900   -0.5650 H   0  0  0  0  0  0  0  0  0  0  0  0
   -0.7070   -2.0440    0.0020 H   0  0  0  0  0  0  0  0  0  0  0  0
    5.7650    0.7190    3.3750 H   0  0  0  0  0  0  0  0  0  0  0  0
    6.7260   -0.5720    2.6130 H   0  0  0  0  0  0  0  0  0  0  0  0
    5.8990   -3.0260    2.9020 H   0  0  0  0  0  0  0  0  0  0  0  0
    4.4130   -3.2910    3.8450 H   0  0  0  0  0  0  0  0  0  0  0  0
   -3.9230    1.1940   -0.7860 H   0  0  0  0  0  0  0  0  0  0  0  0
   -2.9700    1.4580    3.3860 H   0  0  0  0  0  0  0  0  0  0  0  0
   -6.2150    2.0220   -0.3160 H   0  0  0  0  0  0  0  0  0  0  0  0
   -5.2640    2.2860    3.8570 H   0  0  0  0  0  0  0  0  0  0  0  0
    4.1770   -0.9060    4.2370 H   0  0  0  0  0  0  0  0  0  0  0  0
   -8.6520    3.3230    3.2160 H   0  0  0  0  0  0  0  0  0  0  0  0
   -6.9880    3.7770    3.6530 H   0  0  0  0  0  0  0  0  0  0  0  0
   -7.5440    2.1030    3.8870 H   0  0  0  0  0  0  0  0  0  0  0  0
    7.0200   -1.8000    4.7790 H   0  0  0  0  0  0  0  0  0  0  0  0
    5.5970   -2.1470    5.7900 H   0  0  0  0  0  0  0  0  0  0  0  0
    6.1610   -0.4710    5.5930 H   0  0  0  0  0  0  0  0  0  0  0  0
  1  2  1  0  0  0  0
  1  3  1  0  0  0  0
  1  4  2  0  0  0  0
  1  5  2  0  0  0  0
  2  7  1  0  0  0  0
  2  8  1  0  0  0  0
  3 10  1  0  0  0  0
  3 11  2  0  0  0  0
  6  9  2  0  0  0  0
  6 12  1  0  0  0  0
  7 17  1  0  0  0  0
  7 27  1  0  0  0  0
  7 28  1  0  0  0  0
  8 18  1  0  0  0  0
  8 29  1  0  0  0  0
  8 30  1  0  0  0  0
  9 13  1  0  0  0  0
  9 31  1  0  0  0  0
 10 16  2  0  0  0  0
 10 32  1  0  0  0  0
 11 15  1  0  0  0  0
 11 33  1  0  0  0  0
 12 15  2  0  0  0  0
 12 16  1  0  0  0  0
 13 19  2  0  0  0  0
 13 20  1  0  0  0  0
 14 21  2  0  0  0  0
 14 22  1  0  0  0  0
 14 24  1  0  0  0  0
 15 34  1  0  0  0  0
 16 35  1  0  0  0  0
 17 23  1  0  0  0  0
 17 36  1  0  0  0  0
 17 37  1  0  0  0  0
 18 23  1  0  0  0  0
 18 38  1  0  0  0  0
 18 39  1  0  0  0  0
 19 21  1  0  0  0  0
 19 40  1  0  0  0  0
 20 22  2  0  0  0  0
 20 41  1  0  0  0  0
 21 42  1  0  0  0  0
 22 43  1  0  0  0  0
 23 26  1  0  0  0  0
 23 44  1  0  0  0  0
 24 25  1  0  0  0  0
 25 45  1  0  0  0  0
 25 46  1  0  0  0  0
 25 47  1  0  0  0  0
 26 48  1  0  0  0  0
 26 49  1  0  0  0  0
 26 50  1  0  0  0  0
M  END
>  <$CLUSTER>
642

>  <INDEX>
536545

$$$$
Enamine T0510-9385
  MOE2020           3D

 48 51  0  0  0  0  0  0  0  0999 V2000
    0.2890    0.5490    0.0010 N   0  0  0  0  0  0  0  0  0  0  0  0
    0.1020   -1.6560   -0.9980 C   0  0  0  0  0  0  0  0  0  0  0  0
    0.9580   -0.4830   -0.6830 C   0  0  0  0  0  0  0  0  0  0  0  0
   -0.9450    0.3510    0.6440 C   0  0  0  0  0  0  0  0  0  0  0  0
   -0.8980   -2.0490   -0.0070 C   0  0  0  0  0  0  0  0  0  0  0  0
   -1.4100   -1.0460    0.8130 C   0  0  0  0  0  0  0  0  0  0  0  0
    0.1920   -2.2510   -2.1960 C   0  0  0  0  0  0  0  0  0  0  0  0
    0.9050    1.8570    0.0480 C   0  0  0  0  0  0  0  0  0  0  0  0
    2.0600   -2.0040   -5.3370 N   0  0  0  0  0  0  0  0  0  0  0  0
    2.1640   -0.5030   -0.9330 O   0  0  0  0  0  0  0  0  0  0  0  0
   -1.6970    1.2330    1.0580 O   0  0  0  0  0  0  0  0  0  0  0  0
    1.0000   -1.9780   -3.2680 N   0  0  0  0  0  0  0  0  0  0  0  0
    1.1280   -2.5550   -4.5080 C   0  0  0  0  0  0  0  0  0  0  0  0
    0.7130    2.7190    1.1420 C   0  0  0  0  0  0  0  0  0  0  0  0
    1.7180    2.3120   -1.0070 C   0  0  0  0  0  0  0  0  0  0  0  0
    2.2180   -2.5470   -6.5740 C   0  0  0  0  0  0  0  0  0  0  0  0
    1.4880   -3.6270   -7.0440 C   0  0  0  0  0  0  0  0  0  0  0  0
    0.3570   -3.6480   -4.9210 C   0  0  0  0  0  0  0  0  0  0  0  0
    2.1080    4.4130    0.1250 C   0  0  0  0  0  0  0  0  0  0  0  0
    1.3090    3.9830    1.1800 C   0  0  0  0  0  0  0  0  0  0  0  0
    2.3120    3.5770   -0.9690 C   0  0  0  0  0  0  0  0  0  0  0  0
    1.7330   -4.2550   -8.5930 Cl  0  0  0  0  0  0  0  0  0  0  0  0
   -1.3350   -3.3690    0.1770 C   0  0  0  0  0  0  0  0  0  0  0  0
   -2.3770   -1.3410    1.7810 C   0  0  0  0  0  0  0  0  0  0  0  0
    0.5400   -4.1850   -6.1970 C   0  0  0  0  0  0  0  0  0  0  0  0
    2.6340    5.6690    0.2790 O   0  0  0  0  0  0  0  0  0  0  0  0
    3.4630    6.1610   -0.7730 C   0  0  0  0  0  0  0  0  0  0  0  0
   -2.2920   -3.6660    1.1480 C   0  0  0  0  0  0  0  0  0  0  0  0
   -2.8170   -2.6530    1.9460 C   0  0  0  0  0  0  0  0  0  0  0  0
    3.9280    7.5540   -0.3890 C   0  0  0  0  0  0  0  0  0  0  0  0
   -0.4830   -3.0820   -2.3390 H   0  0  0  0  0  0  0  0  0  0  0  0
    1.6250   -1.1990   -3.1170 H   0  0  0  0  0  0  0  0  0  0  0  0
    0.0940    2.3990    1.9670 H   0  0  0  0  0  0  0  0  0  0  0  0
    1.8860    1.6730   -1.8610 H   0  0  0  0  0  0  0  0  0  0  0  0
    2.9570   -2.1100   -7.2290 H   0  0  0  0  0  0  0  0  0  0  0  0
   -0.3780   -4.0750   -4.2540 H   0  0  0  0  0  0  0  0  0  0  0  0
    1.1490    4.6280    2.0310 H   0  0  0  0  0  0  0  0  0  0  0  0
    2.9310    3.9060   -1.7910 H   0  0  0  0  0  0  0  0  0  0  0  0
   -0.9290   -4.1600   -0.4360 H   0  0  0  0  0  0  0  0  0  0  0  0
   -2.7820   -0.5530    2.3990 H   0  0  0  0  0  0  0  0  0  0  0  0
   -0.0510   -5.0280   -6.5220 H   0  0  0  0  0  0  0  0  0  0  0  0
    4.3240    5.5060   -0.9030 H   0  0  0  0  0  0  0  0  0  0  0  0
    2.8950    6.2030   -1.7030 H   0  0  0  0  0  0  0  0  0  0  0  0
   -2.6260   -4.6840    1.2810 H   0  0  0  0  0  0  0  0  0  0  0  0
   -3.5640   -2.8840    2.6910 H   0  0  0  0  0  0  0  0  0  0  0  0
    4.4950    7.5040    0.5410 H   0  0  0  0  0  0  0  0  0  0  0  0
    3.0620    8.2010   -0.2530 H   0  0  0  0  0  0  0  0  0  0  0  0
    4.5620    7.9560   -1.1790 H   0  0  0  0  0  0  0  0  0  0  0  0
  1  3  1  0  0  0  0
  1  4  1  0  0  0  0
  1  8  1  0  0  0  0
  2  3  1  0  0  0  0
  2  5  1  0  0  0  0
  2  7  2  0  0  0  0
  3 10  2  0  0  0  0
  4  6  1  0  0  0  0
  4 11  2  0  0  0  0
  5  6  1  0  0  0  0
  5 23  2  0  0  0  0
  6 24  2  0  0  0  0
  7 12  1  0  0  0  0
  7 31  1  0  0  0  0
  8 14  2  0  0  0  0
  8 15  1  0  0  0  0
  9 13  2  0  0  0  0
  9 16  1  0  0  0  0
 12 13  1  0  0  0  0
 12 32  1  0  0  0  0
 13 18  1  0  0  0  0
 14 20  1  0  0  0  0
 14 33  1  0  0  0  0
 15 21  2  0  0  0  0
 15 34  1  0  0  0  0
 16 17  2  0  0  0  0
 16 35  1  0  0  0  0
 17 22  1  0  0  0  0
 17 25  1  0  0  0  0
 18 25  2  0  0  0  0
 18 36  1  0  0  0  0
 19 20  2  0  0  0  0
 19 21  1  0  0  0  0
 19 26  1  0  0  0  0
 20 37  1  0  0  0  0
 21 38  1  0  0  0  0
 23 28  1  0  0  0  0
 23 39  1  0  0  0  0
 24 29  1  0  0  0  0
 24 40  1  0  0  0  0
 25 41  1  0  0  0  0
 26 27  1  0  0  0  0
 27 30  1  0  0  0  0
 27 42  1  0  0  0  0
 27 43  1  0  0  0  0
 28 29  2  0  0  0  0
 28 44  1  0  0  0  0
 29 45  1  0  0  0  0
 30 46  1  0  0  0  0
 30 47  1  0  0  0  0
 30 48  1  0  0  0  0
M  END
>  <$CLUSTER>
643

>  <INDEX>
423457

$$$$
TimTec ST048013
  MOE2020           3D

 37 39  0  0  1  0  0  0  0  0999 V2000
   -1.2300    0.5140   -0.3820 C   0  0  0  0  0  0  0  0  0  0  0  0
   -1.4520   -1.3880   -1.6210 N   0  0  0  0  0  0  0  0  0  0  0  0
   -2.1780    0.7620   -1.2960 C   0  0  0  0  0  0  0  0  0  0  0  0
   -2.3470   -0.4580   -2.1150 C   0  0  0  0  0  0  0  0  0  0  0  0
   -0.6520   -0.8690   -0.5190 C   0  0  3  0  0  0  0  0  0  0  0  0
   -0.7820    1.5320    0.5860 C   0  0  0  0  0  0  0  0  0  0  0  0
    0.8380   -0.9000   -0.7920 C   0  0  0  0  0  0  0  0  0  0  0  0
   -3.1470   -0.5660   -3.0300 O   0  0  0  0  0  0  0  0  0  0  0  0
   -0.9460    2.7330    0.4050 O   0  0  0  0  0  0  0  0  0  0  0  0
   -0.0790    1.0910    1.7980 C   0  0  0  0  0  0  0  0  0  0  0  0
   -2.9150    1.8840   -1.5170 O   0  0  0  0  0  0  0  0  0  0  0  0
    1.6840   -1.6170    0.0690 C   0  0  0  0  0  0  0  0  0  0  0  0
    1.4060   -0.2250   -1.8840 C   0  0  0  0  0  0  0  0  0  0  0  0
   -1.3170   -2.7480   -2.1070 C   0  0  0  0  0  0  0  0  0  0  0  0
    3.6110   -0.9720   -1.2380 C   0  0  0  0  0  0  0  0  0  0  0  0
    2.7840   -0.2610   -2.1040 C   0  0  0  0  0  0  0  0  0  0  0  0
    3.0620   -1.6500   -0.1530 C   0  0  0  0  0  0  0  0  0  0  0  0
    5.6470   -0.9980   -1.5960 I   0  0  0  0  0  0  0  0  0  0  0  0
   -0.6620    0.1630    2.6620 C   0  0  0  0  0  0  0  0  0  0  0  0
    1.1690    1.6490    2.0900 C   0  0  0  0  0  0  0  0  0  0  0  0
    0.0240   -0.2310    3.8110 C   0  0  0  0  0  0  0  0  0  0  0  0
    1.8490    1.2490    3.2390 C   0  0  0  0  0  0  0  0  0  0  0  0
    1.2790    0.3070    4.0970 C   0  0  0  0  0  0  0  0  0  0  0  0
   -0.7070   -1.4570    0.3970 H   0  0  0  0  0  0  0  0  0  0  0  0
   -2.7270    2.6160   -0.9250 H   0  0  0  0  0  0  0  0  0  0  0  0
    1.2650   -2.1480    0.9110 H   0  0  0  0  0  0  0  0  0  0  0  0
    0.7710    0.3270   -2.5600 H   0  0  0  0  0  0  0  0  0  0  0  0
   -2.0120   -2.9100   -2.9310 H   0  0  0  0  0  0  0  0  0  0  0  0
   -1.5400   -3.4460   -1.3000 H   0  0  0  0  0  0  0  0  0  0  0  0
   -0.2970   -2.9100   -2.4550 H   0  0  0  0  0  0  0  0  0  0  0  0
    3.2090    0.2630   -2.9470 H   0  0  0  0  0  0  0  0  0  0  0  0
    3.7030   -2.2020    0.5180 H   0  0  0  0  0  0  0  0  0  0  0  0
   -1.6370   -0.2470    2.4430 H   0  0  0  0  0  0  0  0  0  0  0  0
    1.6030    2.3850    1.4300 H   0  0  0  0  0  0  0  0  0  0  0  0
   -0.4170   -0.9540    4.4810 H   0  0  0  0  0  0  0  0  0  0  0  0
    2.8180    1.6680    3.4660 H   0  0  0  0  0  0  0  0  0  0  0  0
    1.8100   -0.0060    4.9840 H   0  0  0  0  0  0  0  0  0  0  0  0
  1  3  2  0  0  0  0
  1  5  1  0  0  0  0
  1  6  1  0  0  0  0
  2  4  1  0  0  0  0
  2  5  1  0  0  0  0
  2 14  1  0  0  0  0
  3  4  1  0  0  0  0
  3 11  1  0  0  0  0
  4  8  2  0  0  0  0
  5  7  1  0  0  0  0
  5 24  1  0  0  0  0
  6  9  2  0  0  0  0
  6 10  1  0  0  0  0
  7 12  1  0  0  0  0
  7 13  2  0  0  0  0
 10 19  2  0  0  0  0
 10 20  1  0  0  0  0
 11 25  1  0  0  0  0
 12 17  2  0  0  0  0
 12 26  1  0  0  0  0
 13 16  1  0  0  0  0
 13 27  1  0  0  0  0
 14 28  1  0  0  0  0
 14 29  1  0  0  0  0
 14 30  1  0  0  0  0
 15 16  2  0  0  0  0
 15 17  1  0  0  0  0
 15 18  1  0  0  0  0
 16 31  1  0  0  0  0
 17 32  1  0  0  0  0
 19 21  1  0  0  0  0
 19 33  1  0  0  0  0
 20 22  2  0  0  0  0
 20 34  1  0  0  0  0
 21 23  2  0  0  0  0
 21 35  1  0  0  0  0
 22 23  1  0  0  0  0
 22 36  1  0  0  0  0
 23 37  1  0  0  0  0
M  END
>  <$CLUSTER>
644

>  <INDEX>
642093

$$$$
Akos OWH-S11-3362
  MOE2020           3D

 44 47  0  0  0  0  0  0  0  0999 V2000
   -3.1820    0.4170    1.5140 C   0  0  0  0  0  0  0  0  0  0  0  0
   -4.3200    1.0440    3.6220 C   0  0  0  0  0  0  0  0  0  0  0  0
   -2.7090    0.8410    3.0990 S   0  0  0  0  0  0  0  0  0  0  0  0
   -4.5770    0.4330    1.3970 C   0  0  0  0  0  0  0  0  0  0  0  0
   -5.2230    0.7950    2.6130 C   0  0  0  0  0  0  0  0  0  0  0  0
   -2.1900    0.0790    0.4290 C   0  0  0  0  0  0  0  0  0  0  0  0
   -4.5330    1.4070    4.8940 N   0  0  0  0  0  0  0  0  0  0  0  0
   -0.8850    0.1640    0.8990 N   0  0  0  0  0  0  0  0  0  0  0  0
   -5.8450    1.5350    5.1850 C   0  0  0  0  0  0  0  0  0  0  0  0
   -6.5960    0.9510    2.9980 C   0  0  0  0  0  0  0  0  0  0  0  0
    1.5800   -0.6750   -1.8000 C   0  0  0  0  0  0  0  0  0  0  0  0
    0.3520   -0.4560   -1.1680 C   0  0  0  0  0  0  0  0  0  0  0  0
   -6.1200    1.9420    6.6260 C   0  0  0  0  0  0  0  0  0  0  0  0
    0.3070   -0.0790    0.1780 C   0  0  0  0  0  0  0  0  0  0  0  0
   -2.5690   -0.2210   -0.6980 O   0  0  0  0  0  0  0  0  0  0  0  0
    2.7720   -0.5210   -1.0950 C   0  0  0  0  0  0  0  0  0  0  0  0
   -6.8930    1.3260    4.3060 C   0  0  0  0  0  0  0  0  0  0  0  0
   -5.2650    0.1440    0.2720 N   0  0  0  0  0  0  0  0  0  0  0  0
   -5.2080    2.7710    7.3130 C   0  0  0  0  0  0  0  0  0  0  0  0
    2.7390   -0.1470    0.2440 C   0  0  0  0  0  0  0  0  0  0  0  0
    1.5200   -1.0300   -3.0860 F   0  0  0  0  0  0  0  0  0  0  0  0
    1.5140    0.0730    0.8770 C   0  0  0  0  0  0  0  0  0  0  0  0
   -5.4360    3.1620    8.6350 C   0  0  0  0  0  0  0  0  0  0  0  0
    3.9790   -0.7120   -1.6270 F   0  0  0  0  0  0  0  0  0  0  0  0
   -4.4570    3.9770    9.1620 O   0  0  0  0  0  0  0  0  0  0  0  0
   -7.2650    1.5130    7.3280 C   0  0  0  0  0  0  0  0  0  0  0  0
   -7.4910    1.9050    8.6510 C   0  0  0  0  0  0  0  0  0  0  0  0
   -6.5790    2.7300    9.3030 C   0  0  0  0  0  0  0  0  0  0  0  0
   -4.6400    4.4040   10.5080 C   0  0  0  0  0  0  0  0  0  0  0  0
   -0.7750    0.4300    1.8670 H   0  0  0  0  0  0  0  0  0  0  0  0
   -7.3880    0.7800    2.2840 H   0  0  0  0  0  0  0  0  0  0  0  0
   -0.5670   -0.5790   -1.7220 H   0  0  0  0  0  0  0  0  0  0  0  0
   -7.9170    1.4510    4.6270 H   0  0  0  0  0  0  0  0  0  0  0  0
   -6.2740    0.1810    0.2740 H   0  0  0  0  0  0  0  0  0  0  0  0
   -4.7700   -0.1090   -0.5720 H   0  0  0  0  0  0  0  0  0  0  0  0
   -4.3160    3.1100    6.8070 H   0  0  0  0  0  0  0  0  0  0  0  0
    3.6610   -0.0270    0.7940 H   0  0  0  0  0  0  0  0  0  0  0  0
    1.4950    0.3640    1.9170 H   0  0  0  0  0  0  0  0  0  0  0  0
   -7.9800    0.8710    6.8350 H   0  0  0  0  0  0  0  0  0  0  0  0
   -8.3760    1.5660    9.1690 H   0  0  0  0  0  0  0  0  0  0  0  0
   -6.7570    3.0340   10.3240 H   0  0  0  0  0  0  0  0  0  0  0  0
   -3.8050    5.0380   10.8050 H   0  0  0  0  0  0  0  0  0  0  0  0
   -4.6860    3.5330   11.1620 H   0  0  0  0  0  0  0  0  0  0  0  0
   -5.5700    4.9670   10.5870 H   0  0  0  0  0  0  0  0  0  0  0  0
  1  3  1  0  0  0  0
  1  4  2  0  0  0  0
  1  6  1  0  0  0  0
  2  3  1  0  0  0  0
  2  5  1  0  0  0  0
  2  7  2  0  0  0  0
  4  5  1  0  0  0  0
  4 18  1  0  0  0  0
  5 10  2  0  0  0  0
  6  8  1  0  0  0  0
  6 15  2  0  0  0  0
  7  9  1  0  0  0  0
  8 14  1  0  0  0  0
  8 30  1  0  0  0  0
  9 13  1  0  0  0  0
  9 17  2  0  0  0  0
 10 17  1  0  0  0  0
 10 31  1  0  0  0  0
 11 12  2  0  0  0  0
 11 16  1  0  0  0  0
 11 21  1  0  0  0  0
 12 14  1  0  0  0  0
 12 32  1  0  0  0  0
 13 19  2  0  0  0  0
 13 26  1  0  0  0  0
 14 22  2  0  0  0  0
 16 20  2  0  0  0  0
 16 24  1  0  0  0  0
 17 33  1  0  0  0  0
 18 34  1  0  0  0  0
 18 35  1  0  0  0  0
 19 23  1  0  0  0  0
 19 36  1  0  0  0  0
 20 22  1  0  0  0  0
 20 37  1  0  0  0  0
 22 38  1  0  0  0  0
 23 25  1  0  0  0  0
 23 28  2  0  0  0  0
 25 29  1  0  0  0  0
 26 27  2  0  0  0  0
 26 39  1  0  0  0  0
 27 28  1  0  0  0  0
 27 40  1  0  0  0  0
 28 41  1  0  0  0  0
 29 42  1  0  0  0  0
 29 43  1  0  0  0  0
 29 44  1  0  0  0  0
M  END
>  <$CLUSTER>
645

>  <INDEX>
211826

$$$$
Enamine T0511-3654
  MOE2020           3D

 35 36  0  0  1  0  0  0  0  0999 V2000
    0.3620    0.6510   -0.0820 N   0  3  0  0  0  0  0  0  0  0  0  0
   -0.6890   -6.4800    3.4610 N   0  3  0  0  0  0  0  0  0  0  0  0
   -1.7830   -7.3570    3.3810 C   0  0  0  0  0  0  0  0  0  0  0  0
   -1.7670   -5.5720    0.6790 C   0  0  0  0  0  0  0  0  0  0  0  0
   -2.2860   -4.3070    0.5400 N   0  0  0  0  0  0  0  0  0  0  0  0
   -0.2920   -0.6470    0.0810 C   0  0  0  0  0  0  0  0  0  0  0  0
   -3.3120   -6.8060    2.5980 S   0  0  0  0  0  0  0  0  0  0  0  0
   -1.7850   -0.6130    0.1000 C   0  0  0  0  0  0  0  0  0  0  0  0
   -1.5990   -3.0820    0.3860 C   0  0  0  0  0  0  0  0  0  0  0  0
   -2.3450   -1.8930    0.2580 C   0  0  0  0  0  0  0  0  0  0  0  0
   -2.8470   -6.6180    0.8190 C   0  0  3  0  0  0  0  0  0  0  0  0
   -0.7190   -5.2510    3.0850 O   0  5  0  0  0  0  0  0  0  0  0  0
    1.6040    0.6970   -0.1070 O   0  5  0  0  0  0  0  0  0  0  0  0
   -0.3660    1.6520   -0.1880 O   0  0  0  0  0  0  0  0  0  0  0  0
   -0.5790   -5.8870    0.6990 O   0  0  0  0  0  0  0  0  0  0  0  0
    0.4780   -1.7400    0.1970 C   0  0  0  0  0  0  0  0  0  0  0  0
   -0.2040   -2.9920    0.3540 C   0  0  0  0  0  0  0  0  0  0  0  0
   -4.0780   -1.9000    0.2860 Cl  0  0  0  0  0  0  0  0  0  0  0  0
    0.4710   -6.9780    4.0310 C   0  0  0  0  0  0  0  0  0  0  0  0
   -1.6930   -8.6690    3.7720 C   0  0  0  0  0  0  0  0  0  0  0  0
   -2.4340   -7.9960    0.2750 C   0  0  0  0  0  0  0  0  0  0  0  0
    0.5750   -8.2940    4.4710 C   0  0  0  0  0  0  0  0  0  0  0  0
   -0.5150   -9.1400    4.3410 C   0  0  0  0  0  0  0  0  0  0  0  0
   -3.2940   -4.2450    0.5490 H   0  0  0  0  0  0  0  0  0  0  0  0
   -2.3680    0.2910    0.0030 H   0  0  0  0  0  0  0  0  0  0  0  0
   -3.6900   -6.2670    0.2250 H   0  0  0  0  0  0  0  0  0  0  0  0
    1.5560   -1.6800    0.1730 H   0  0  0  0  0  0  0  0  0  0  0  0
    0.3800   -3.8960    0.4510 H   0  0  0  0  0  0  0  0  0  0  0  0
    1.3230   -6.3230    4.1370 H   0  0  0  0  0  0  0  0  0  0  0  0
   -2.5340   -9.3330    3.6380 H   0  0  0  0  0  0  0  0  0  0  0  0
   -1.5900   -8.3760    0.8510 H   0  0  0  0  0  0  0  0  0  0  0  0
   -2.1470   -7.9020   -0.7720 H   0  0  0  0  0  0  0  0  0  0  0  0
   -3.2730   -8.6870    0.3610 H   0  0  0  0  0  0  0  0  0  0  0  0
    1.4950   -8.6520    4.9090 H   0  0  0  0  0  0  0  0  0  0  0  0
   -0.4500  -10.1630    4.6810 H   0  0  0  0  0  0  0  0  0  0  0  0
  1  6  1  0  0  0  0
  1 13  1  0  0  0  0
  1 14  2  0  0  0  0
  2  3  2  0  0  0  0
  2 12  1  0  0  0  0
  2 19  1  0  0  0  0
  3  7  1  0  0  0  0
  3 20  1  0  0  0  0
  4  5  1  0  0  0  0
  4 11  1  0  0  0  0
  4 15  2  0  0  0  0
  5  9  1  0  0  0  0
  5 24  1  0  0  0  0
  6  8  1  0  0  0  0
  6 16  2  0  0  0  0
  7 11  1  0  0  0  0
  8 10  2  0  0  0  0
  8 25  1  0  0  0  0
  9 10  1  0  0  0  0
  9 17  2  0  0  0  0
 10 18  1  0  0  0  0
 11 21  1  0  0  0  0
 11 26  1  0  0  0  0
 16 17  1  0  0  0  0
 16 27  1  0  0  0  0
 17 28  1  0  0  0  0
 19 22  2  0  0  0  0
 19 29  1  0  0  0  0
 20 23  2  0  0  0  0
 20 30  1  0  0  0  0
 21 31  1  0  0  0  0
 21 32  1  0  0  0  0
 21 33  1  0  0  0  0
 22 23  1  0  0  0  0
 22 34  1  0  0  0  0
 23 35  1  0  0  0  0
M  CHG  1   1   1
M  CHG  1   2   1
M  CHG  1  12  -1
M  CHG  1  13  -1
M  END
>  <$CLUSTER>
646

>  <INDEX>
424379

$$$$
Enamine T0511-9352
  MOE2020           3D

 40 43  0  0  0  0  0  0  0  0999 V2000
    1.0790   -0.2880    0.4260 C   0  0  0  0  0  0  0  0  0  0  0  0
   -0.1630   -0.3220   -0.2370 C   0  0  0  0  0  0  0  0  0  0  0  0
    1.5010    0.7760    1.1480 N   0  0  0  0  0  0  0  0  0  0  0  0
    2.2280   -1.6830    0.3670 S   0  0  0  0  0  0  0  0  0  0  0  0
    3.2310   -0.9650    2.8530 C   0  0  0  0  0  0  0  0  0  0  0  0
   -0.5360    1.9090    0.6210 N   0  0  0  0  0  0  0  0  0  0  0  0
    2.8130    0.2630    3.2440 N   0  0  0  0  0  0  0  0  0  0  0  0
    0.6680    1.8230    1.2070 C   0  0  0  0  0  0  0  0  0  0  0  0
   -0.9420    0.8420   -0.0940 C   0  0  0  0  0  0  0  0  0  0  0  0
    2.3840    0.7640    4.4830 C   0  0  0  0  0  0  0  0  0  0  0  0
    1.8490    0.4950    6.8340 C   0  0  0  0  0  0  0  0  0  0  0  0
    2.2870   -0.0450    5.6200 C   0  0  0  0  0  0  0  0  0  0  0  0
    3.2410   -1.9330    3.6040 O   0  0  0  0  0  0  0  0  0  0  0  0
    1.5070    1.8410    6.9240 C   0  0  0  0  0  0  0  0  0  0  0  0
    3.6030   -1.0600    1.3780 C   0  0  0  0  0  0  0  0  0  0  0  0
    1.6000    2.6550    5.7990 C   0  0  0  0  0  0  0  0  0  0  0  0
    2.0370    2.1190    4.5850 C   0  0  0  0  0  0  0  0  0  0  0  0
   -0.6630   -1.4010   -1.0060 C   0  0  0  0  0  0  0  0  0  0  0  0
    1.7510   -0.3320    7.9850 C   0  0  0  0  0  0  0  0  0  0  0  0
   -2.1870    0.8950   -0.7170 C   0  0  0  0  0  0  0  0  0  0  0  0
    1.0670    2.3700    8.1570 C   0  0  0  0  0  0  0  0  0  0  0  0
   -1.9120   -1.3200   -1.6190 C   0  0  0  0  0  0  0  0  0  0  0  0
    1.3160    0.2040    9.1970 C   0  0  0  0  0  0  0  0  0  0  0  0
    0.9740    1.5510    9.2830 C   0  0  0  0  0  0  0  0  0  0  0  0
   -2.6760   -0.1700   -1.4740 C   0  0  0  0  0  0  0  0  0  0  0  0
    2.8090    0.9490    2.5020 H   0  0  0  0  0  0  0  0  0  0  0  0
    0.9960    2.6780    1.7800 H   0  0  0  0  0  0  0  0  0  0  0  0
    2.5510   -1.0900    5.5600 H   0  0  0  0  0  0  0  0  0  0  0  0
    3.8810   -0.0680    1.0210 H   0  0  0  0  0  0  0  0  0  0  0  0
    4.4520   -1.7360    1.2720 H   0  0  0  0  0  0  0  0  0  0  0  0
    1.3350    3.7000    5.8640 H   0  0  0  0  0  0  0  0  0  0  0  0
    2.1080    2.7550    3.7150 H   0  0  0  0  0  0  0  0  0  0  0  0
   -0.0700   -2.2960   -1.1190 H   0  0  0  0  0  0  0  0  0  0  0  0
    2.0140   -1.3780    7.9210 H   0  0  0  0  0  0  0  0  0  0  0  0
   -2.7900    1.7850   -0.6110 H   0  0  0  0  0  0  0  0  0  0  0  0
    0.8010    3.4140    8.2290 H   0  0  0  0  0  0  0  0  0  0  0  0
   -2.2840   -2.1480   -2.2040 H   0  0  0  0  0  0  0  0  0  0  0  0
    1.2440   -0.4270   10.0710 H   0  0  0  0  0  0  0  0  0  0  0  0
    0.6360    1.9630   10.2230 H   0  0  0  0  0  0  0  0  0  0  0  0
   -3.6450   -0.1000   -1.9450 H   0  0  0  0  0  0  0  0  0  0  0  0
  1  2  1  0  0  0  0
  1  3  2  0  0  0  0
  1  4  1  0  0  0  0
  2  9  2  0  0  0  0
  2 18  1  0  0  0  0
  3  8  1  0  0  0  0
  4 15  1  0  0  0  0
  5  7  1  0  0  0  0
  5 13  2  0  0  0  0
  5 15  1  0  0  0  0
  6  8  2  0  0  0  0
  6  9  1  0  0  0  0
  7 10  1  0  0  0  0
  7 26  1  0  0  0  0
  8 27  1  0  0  0  0
  9 20  1  0  0  0  0
 10 12  2  0  0  0  0
 10 17  1  0  0  0  0
 11 12  1  0  0  0  0
 11 14  2  0  0  0  0
 11 19  1  0  0  0  0
 12 28  1  0  0  0  0
 14 16  1  0  0  0  0
 14 21  1  0  0  0  0
 15 29  1  0  0  0  0
 15 30  1  0  0  0  0
 16 17  2  0  0  0  0
 16 31  1  0  0  0  0
 17 32  1  0  0  0  0
 18 22  2  0  0  0  0
 18 33  1  0  0  0  0
 19 23  2  0  0  0  0
 19 34  1  0  0  0  0
 20 25  2  0  0  0  0
 20 35  1  0  0  0  0
 21 24  2  0  0  0  0
 21 36  1  0  0  0  0
 22 25  1  0  0  0  0
 22 37  1  0  0  0  0
 23 24  1  0  0  0  0
 23 38  1  0  0  0  0
 24 39  1  0  0  0  0
 25 40  1  0  0  0  0
M  END
>  <$CLUSTER>
647

>  <INDEX>
425535

$$$$
Enamine T0506-0067
  MOE2020           3D

 44 46  0  0  0  0  0  0  0  0999 V2000
   -0.5080   -0.9980   -0.0200 N   0  0  0  0  0  0  0  0  0  0  0  0
    0.0400    0.2990    0.0160 C   0  0  0  0  0  0  0  0  0  0  0  0
   -1.8530   -1.3230    0.0770 C   0  0  0  0  0  0  0  0  0  0  0  0
   -3.9270   -4.3520    0.0650 C   0  0  0  0  0  0  0  0  0  0  0  0
   -5.4180   -4.4340    0.1890 C   0  0  0  0  0  0  0  0  0  0  0  0
    0.6030   -1.9620   -0.1800 C   0  0  0  0  0  0  0  0  0  0  0  0
   -3.5160   -3.0670    0.1100 O   0  0  0  0  0  0  0  0  0  0  0  0
    1.4250    0.2390   -0.1100 C   0  0  0  0  0  0  0  0  0  0  0  0
   -5.9920   -5.7080    0.1590 C   0  0  0  0  0  0  0  0  0  0  0  0
   -6.2090   -3.3060    0.3290 C   0  0  0  0  0  0  0  0  0  0  0  0
   -2.1640   -2.8020    0.0080 C   0  0  0  0  0  0  0  0  0  0  0  0
   -8.1790   -4.7090    0.4120 C   0  0  0  0  0  0  0  0  0  0  0  0
   -7.3780   -5.8410    0.2720 C   0  0  0  0  0  0  0  0  0  0  0  0
   -7.5950   -3.4450    0.4410 C   0  0  0  0  0  0  0  0  0  0  0  0
   -2.7690   -0.5130    0.2100 O   0  0  0  0  0  0  0  0  0  0  0  0
   -3.1940   -5.3240   -0.0590 O   0  0  0  0  0  0  0  0  0  0  0  0
    1.9100   -1.1660   -0.2440 C   0  0  0  0  0  0  0  0  0  0  0  0
   -8.4930   -2.4020    0.5840 O   0  0  0  0  0  0  0  0  0  0  0  0
   -8.0670   -7.0350    0.2570 O   0  0  0  0  0  0  0  0  0  0  0  0
   -0.6050    1.5160    0.1520 C   0  0  0  0  0  0  0  0  0  0  0  0
    2.2010    1.3950   -0.1030 C   0  0  0  0  0  0  0  0  0  0  0  0
   -7.9530   -1.0860    0.6200 C   0  0  0  0  0  0  0  0  0  0  0  0
   -7.2970   -8.2230    0.1150 C   0  0  0  0  0  0  0  0  0  0  0  0
    0.1630    2.6870    0.1600 C   0  0  0  0  0  0  0  0  0  0  0  0
    1.5570    2.6270    0.0340 C   0  0  0  0  0  0  0  0  0  0  0  0
    0.4700   -2.5310   -1.1000 H   0  0  0  0  0  0  0  0  0  0  0  0
    0.6260   -2.6450    0.6690 H   0  0  0  0  0  0  0  0  0  0  0  0
   -5.3690   -6.5830    0.0490 H   0  0  0  0  0  0  0  0  0  0  0  0
   -5.7580   -2.3250    0.3510 H   0  0  0  0  0  0  0  0  0  0  0  0
   -1.6470   -3.3060    0.8250 H   0  0  0  0  0  0  0  0  0  0  0  0
   -1.8030   -3.1900   -0.9440 H   0  0  0  0  0  0  0  0  0  0  0  0
   -9.2510   -4.8120    0.4980 H   0  0  0  0  0  0  0  0  0  0  0  0
    2.4210   -1.3200   -1.1940 H   0  0  0  0  0  0  0  0  0  0  0  0
    2.5780   -1.4340    0.5750 H   0  0  0  0  0  0  0  0  0  0  0  0
   -1.6800    1.5620    0.2500 H   0  0  0  0  0  0  0  0  0  0  0  0
    3.2750    1.3400   -0.2010 H   0  0  0  0  0  0  0  0  0  0  0  0
   -8.7620   -0.3640    0.7350 H   0  0  0  0  0  0  0  0  0  0  0  0
   -7.4180   -0.8870   -0.3090 H   0  0  0  0  0  0  0  0  0  0  0  0
   -7.2650   -0.9980    1.4610 H   0  0  0  0  0  0  0  0  0  0  0  0
   -7.9600   -9.0880    0.1180 H   0  0  0  0  0  0  0  0  0  0  0  0
   -6.5930   -8.3010    0.9440 H   0  0  0  0  0  0  0  0  0  0  0  0
   -6.7480   -8.1900   -0.8260 H   0  0  0  0  0  0  0  0  0  0  0  0
   -0.3240    3.6450    0.2640 H   0  0  0  0  0  0  0  0  0  0  0  0
    2.1370    3.5380    0.0430 H   0  0  0  0  0  0  0  0  0  0  0  0
  1  2  1  0  0  0  0
  1  3  1  0  0  0  0
  1  6  1  0  0  0  0
  2  8  2  0  0  0  0
  2 20  1  0  0  0  0
  3 11  1  0  0  0  0
  3 15  2  0  0  0  0
  4  5  1  0  0  0  0
  4  7  1  0  0  0  0
  4 16  2  0  0  0  0
  5  9  2  0  0  0  0
  5 10  1  0  0  0  0
  6 17  1  0  0  0  0
  6 26  1  0  0  0  0
  6 27  1  0  0  0  0
  7 11  1  0  0  0  0
  8 17  1  0  0  0  0
  8 21  1  0  0  0  0
  9 13  1  0  0  0  0
  9 28  1  0  0  0  0
 10 14  2  0  0  0  0
 10 29  1  0  0  0  0
 11 30  1  0  0  0  0
 11 31  1  0  0  0  0
 12 13  2  0  0  0  0
 12 14  1  0  0  0  0
 12 32  1  0  0  0  0
 13 19  1  0  0  0  0
 14 18  1  0  0  0  0
 17 33  1  0  0  0  0
 17 34  1  0  0  0  0
 18 22  1  0  0  0  0
 19 23  1  0  0  0  0
 20 24  2  0  0  0  0
 20 35  1  0  0  0  0
 21 25  2  0  0  0  0
 21 36  1  0  0  0  0
 22 37  1  0  0  0  0
 22 38  1  0  0  0  0
 22 39  1  0  0  0  0
 23 40  1  0  0  0  0
 23 41  1  0  0  0  0
 23 42  1  0  0  0  0
 24 25  1  0  0  0  0
 24 43  1  0  0  0  0
 25 44  1  0  0  0  0
M  END
>  <$CLUSTER>
648

>  <INDEX>
412323

$$$$
Chem T&I ARAK0121991
  MOE2020           3D

 37 38  0  0  0  0  0  0  0  0999 V2000
    0.5220   -1.3930   -0.6920 C   0  0  0  0  0  0  0  0  0  0  0  0
   -0.5840    1.3420    0.7430 C   0  0  0  0  0  0  0  0  0  0  0  0
    0.4310   -0.0410   -0.9310 N   0  0  0  0  0  0  0  0  0  0  0  0
    0.5470    0.8600    0.1230 N   0  0  0  0  0  0  0  0  0  0  0  0
   -2.3970    4.1460    4.1580 C   0  0  0  0  0  0  0  0  0  0  0  0
    0.3630   -2.2150   -1.9450 C   0  0  0  0  0  0  0  0  0  0  0  0
   -1.2050    3.6640    3.5340 C   0  0  0  0  0  0  0  0  0  0  0  0
   -1.4480    2.7670    2.4760 O   0  0  0  0  0  0  0  0  0  0  0  0
   -1.7410    1.0610    0.4300 O   0  0  0  0  0  0  0  0  0  0  0  0
    0.7290   -1.9090    0.4070 O   0  0  0  0  0  0  0  0  0  0  0  0
   -2.2840    5.0480    5.2270 C   0  0  0  0  0  0  0  0  0  0  0  0
   -0.2670    2.2960    1.8650 C   0  0  0  0  0  0  0  0  0  0  0  0
    0.0240    4.0910    3.9900 C   0  0  0  0  0  0  0  0  0  0  0  0
   -0.0790   -3.5550   -1.7460 C   0  0  0  0  0  0  0  0  0  0  0  0
    0.6660   -1.7740   -3.2030 C   0  0  0  0  0  0  0  0  0  0  0  0
   -1.0330    5.4670    5.6730 C   0  0  0  0  0  0  0  0  0  0  0  0
    0.0530   -3.9230   -4.1300 C   0  0  0  0  0  0  0  0  0  0  0  0
    0.1190    4.9900    5.0550 C   0  0  0  0  0  0  0  0  0  0  0  0
    0.5070   -2.6160   -4.3050 C   0  0  0  0  0  0  0  0  0  0  0  0
   -0.2370   -4.3930   -2.8520 C   0  0  0  0  0  0  0  0  0  0  0  0
   -0.9290    6.5630    6.9710 Cl  0  0  0  0  0  0  0  0  0  0  0  0
   -0.1400   -4.9320   -5.4880 Cl  0  0  0  0  0  0  0  0  0  0  0  0
   -3.7590    3.7090    3.6960 C   0  0  0  0  0  0  0  0  0  0  0  0
    0.2800    0.2970   -1.8710 H   0  0  0  0  0  0  0  0  0  0  0  0
    1.4600    1.1600    0.4330 H   0  0  0  0  0  0  0  0  0  0  0  0
   -3.1760    5.4210    5.7090 H   0  0  0  0  0  0  0  0  0  0  0  0
    0.2900    3.1430    1.4660 H   0  0  0  0  0  0  0  0  0  0  0  0
    0.3390    1.7810    2.6100 H   0  0  0  0  0  0  0  0  0  0  0  0
    0.9240    3.7260    3.5180 H   0  0  0  0  0  0  0  0  0  0  0  0
   -0.2890   -3.9180   -0.7510 H   0  0  0  0  0  0  0  0  0  0  0  0
    1.0310   -0.7670   -3.3450 H   0  0  0  0  0  0  0  0  0  0  0  0
    1.0890    5.3160    5.4000 H   0  0  0  0  0  0  0  0  0  0  0  0
    0.7360   -2.2540   -5.2960 H   0  0  0  0  0  0  0  0  0  0  0  0
   -0.5840   -5.4060   -2.7160 H   0  0  0  0  0  0  0  0  0  0  0  0
   -3.6540    3.0130    2.8630 H   0  0  0  0  0  0  0  0  0  0  0  0
   -4.3300    4.5800    3.3730 H   0  0  0  0  0  0  0  0  0  0  0  0
   -4.2810    3.2170    4.5170 H   0  0  0  0  0  0  0  0  0  0  0  0
  1  3  1  0  0  0  0
  1  6  1  0  0  0  0
  1 10  2  0  0  0  0
  2  4  1  0  0  0  0
  2  9  2  0  0  0  0
  2 12  1  0  0  0  0
  3  4  1  0  0  0  0
  3 24  1  0  0  0  0
  4 25  1  0  0  0  0
  5  7  2  0  0  0  0
  5 11  1  0  0  0  0
  5 23  1  0  0  0  0
  6 14  1  0  0  0  0
  6 15  2  0  0  0  0
  7  8  1  0  0  0  0
  7 13  1  0  0  0  0
  8 12  1  0  0  0  0
 11 16  2  0  0  0  0
 11 26  1  0  0  0  0
 12 27  1  0  0  0  0
 12 28  1  0  0  0  0
 13 18  2  0  0  0  0
 13 29  1  0  0  0  0
 14 20  2  0  0  0  0
 14 30  1  0  0  0  0
 15 19  1  0  0  0  0
 15 31  1  0  0  0  0
 16 18  1  0  0  0  0
 16 21  1  0  0  0  0
 17 19  2  0  0  0  0
 17 20  1  0  0  0  0
 17 22  1  0  0  0  0
 18 32  1  0  0  0  0
 19 33  1  0  0  0  0
 20 34  1  0  0  0  0
 23 35  1  0  0  0  0
 23 36  1  0  0  0  0
 23 37  1  0  0  0  0
M  END
>  <$CLUSTER>
649

>  <INDEX>
537818

$$$$
Enamine T0512-2278
  MOE2020           3D

 33 35  0  0  0  0  0  0  0  0999 V2000
   -0.1920    0.1190    0.0630 N   0  0  0  0  0  0  0  0  0  0  0  0
   -1.2970    0.8390    0.4970 C   0  0  0  0  0  0  0  0  0  0  0  0
   -2.0370   -1.2400    0.0760 C   0  0  0  0  0  0  0  0  0  0  0  0
   -0.5850   -1.1850   -0.2370 C   0  0  0  0  0  0  0  0  0  0  0  0
   -2.3900   -0.0040    0.5100 N   0  0  0  0  0  0  0  0  0  0  0  0
    1.1510    0.5620   -0.0770 C   0  0  0  0  0  0  0  0  0  0  0  0
   -2.8130   -2.3120   -0.0550 C   0  0  0  0  0  0  0  0  0  0  0  0
    1.7180    1.5080    0.7910 C   0  0  0  0  0  0  0  0  0  0  0  0
   -4.2730   -2.4000    0.2510 C   0  0  0  0  0  0  0  0  0  0  0  0
   -1.4910    2.4500    0.8830 S   0  0  0  0  0  0  0  0  0  0  0  0
    3.0430    1.9260    0.6410 C   0  0  0  0  0  0  0  0  0  0  0  0
    0.0640   -2.1470   -0.6340 O   0  0  0  0  0  0  0  0  0  0  0  0
   -4.9210   -1.2760    0.7200 O   0  0  0  0  0  0  0  0  0  0  0  0
    1.9730    0.0320   -1.0890 C   0  0  0  0  0  0  0  0  0  0  0  0
    3.8320    1.4010   -0.3780 C   0  0  0  0  0  0  0  0  0  0  0  0
   -5.1060   -3.4250    0.1460 C   0  0  0  0  0  0  0  0  0  0  0  0
   -6.2090   -1.6530    0.9040 C   0  0  0  0  0  0  0  0  0  0  0  0
   -6.3780   -2.9690    0.5640 C   0  0  0  0  0  0  0  0  0  0  0  0
    3.2970    0.4510   -1.2410 C   0  0  0  0  0  0  0  0  0  0  0  0
    3.6440    3.1070    1.7530 Cl  0  0  0  0  0  0  0  0  0  0  0  0
    5.1500    1.8720   -0.4520 O   0  0  0  0  0  0  0  0  0  0  0  0
    5.9730    1.3330   -1.4940 C   0  0  0  0  0  0  0  0  0  0  0  0
   -3.3200    0.2610    0.8010 H   0  0  0  0  0  0  0  0  0  0  0  0
   -2.3390   -3.2110   -0.4200 H   0  0  0  0  0  0  0  0  0  0  0  0
    1.1190    1.9210    1.5900 H   0  0  0  0  0  0  0  0  0  0  0  0
    1.5730   -0.7130   -1.7610 H   0  0  0  0  0  0  0  0  0  0  0  0
   -4.8600   -4.4200   -0.1940 H   0  0  0  0  0  0  0  0  0  0  0  0
   -6.9930   -1.0060    1.2680 H   0  0  0  0  0  0  0  0  0  0  0  0
   -7.2930   -3.5400    0.6060 H   0  0  0  0  0  0  0  0  0  0  0  0
    3.9060    0.0360   -2.0300 H   0  0  0  0  0  0  0  0  0  0  0  0
    6.9660    1.7790   -1.4400 H   0  0  0  0  0  0  0  0  0  0  0  0
    5.5260    1.5570   -2.4630 H   0  0  0  0  0  0  0  0  0  0  0  0
    6.0530    0.2530   -1.3720 H   0  0  0  0  0  0  0  0  0  0  0  0
  1  2  1  0  0  0  0
  1  4  1  0  0  0  0
  1  6  1  0  0  0  0
  2  5  1  0  0  0  0
  2 10  2  0  0  0  0
  3  4  1  0  0  0  0
  3  5  1  0  0  0  0
  3  7  2  0  0  0  0
  4 12  2  0  0  0  0
  5 23  1  0  0  0  0
  6  8  1  0  0  0  0
  6 14  2  0  0  0  0
  7  9  1  0  0  0  0
  7 24  1  0  0  0  0
  8 11  2  0  0  0  0
  8 25  1  0  0  0  0
  9 13  1  0  0  0  0
  9 16  2  0  0  0  0
 11 15  1  0  0  0  0
 11 20  1  0  0  0  0
 13 17  1  0  0  0  0
 14 19  1  0  0  0  0
 14 26  1  0  0  0  0
 15 19  2  0  0  0  0
 15 21  1  0  0  0  0
 16 18  1  0  0  0  0
 16 27  1  0  0  0  0
 17 18  2  0  0  0  0
 17 28  1  0  0  0  0
 18 29  1  0  0  0  0
 19 30  1  0  0  0  0
 21 22  1  0  0  0  0
 22 31  1  0  0  0  0
 22 32  1  0  0  0  0
 22 33  1  0  0  0  0
M  END
>  <$CLUSTER>
650

>  <INDEX>
426379

$$$$
Enamine T0512-1408
  MOE2020           3D

 52 55  0  0  0  0  0  0  0  0999 V2000
   -6.0580    1.3620    2.0370 N   0  0  0  0  0  0  0  0  0  0  0  0
   -5.1010    1.7830    1.1450 C   0  0  0  0  0  0  0  0  0  0  0  0
   -5.6770    1.1420    3.3520 C   0  0  0  0  0  0  0  0  0  0  0  0
   -3.8690    2.0200    1.4050 N   0  0  0  0  0  0  0  0  0  0  0  0
   -4.2750    1.4120    3.6730 C   0  0  0  0  0  0  0  0  0  0  0  0
   -2.4660    0.5200   -0.4650 N   0  0  0  0  0  0  0  0  0  0  0  0
   -3.4760    1.8280    2.6960 C   0  0  0  0  0  0  0  0  0  0  0  0
   -3.3590    0.7880   -1.4470 C   0  0  0  0  0  0  0  0  0  0  0  0
   -5.6400    2.0330   -0.5690 S   0  0  0  0  0  0  0  0  0  0  0  0
   -1.7470   -0.7570   -0.3910 C   0  0  0  0  0  0  0  0  0  0  0  0
   -0.2500   -0.6010   -0.2390 C   0  0  0  0  0  0  0  0  0  0  0  0
   -6.4190    0.7420    4.2470 O   0  0  0  0  0  0  0  0  0  0  0  0
   -2.0620    1.3860    0.6490 C   0  0  0  0  0  0  0  0  0  0  0  0
   -4.0260    2.1390   -1.4030 C   0  0  0  0  0  0  0  0  0  0  0  0
    0.3080    0.5990    0.2480 C   0  0  0  0  0  0  0  0  0  0  0  0
   -3.6470    0.0030   -2.3540 O   0  0  0  0  0  0  0  0  0  0  0  0
   -0.5860    1.7820    0.5330 C   0  0  0  0  0  0  0  0  0  0  0  0
   -7.4720    1.1100    1.7140 C   0  0  0  0  0  0  0  0  0  0  0  0
   -3.7950    1.2160    5.0100 C   0  0  0  0  0  0  0  0  0  0  0  0
   -2.0880    2.0970    2.9810 C   0  0  0  0  0  0  0  0  0  0  0  0
   -9.1050   -0.5090    0.9670 O   0  0  0  0  0  0  0  0  0  0  0  0
    0.5980   -1.6850   -0.5200 C   0  0  0  0  0  0  0  0  0  0  0  0
    1.6980    0.7060    0.4110 C   0  0  0  0  0  0  0  0  0  0  0  0
   -7.7070   -0.3290    1.2750 C   0  0  0  0  0  0  0  0  0  0  0  0
   -9.3700   -1.8520    0.5460 C   0  0  0  0  0  0  0  0  0  0  0  0
   -2.4550    1.4770    5.2920 C   0  0  0  0  0  0  0  0  0  0  0  0
   -1.6020    1.9170    4.2790 C   0  0  0  0  0  0  0  0  0  0  0  0
    1.9790   -1.5720   -0.3450 C   0  0  0  0  0  0  0  0  0  0  0  0
    2.5280   -0.3770    0.1180 C   0  0  0  0  0  0  0  0  0  0  0  0
   -1.9440   -1.3170   -1.3050 H   0  0  0  0  0  0  0  0  0  0  0  0
   -2.1240   -1.3160    0.4660 H   0  0  0  0  0  0  0  0  0  0  0  0
   -2.2150    0.8530    1.5880 H   0  0  0  0  0  0  0  0  0  0  0  0
   -2.6740    2.2880    0.6390 H   0  0  0  0  0  0  0  0  0  0  0  0
   -4.1720    2.4990   -2.4210 H   0  0  0  0  0  0  0  0  0  0  0  0
   -3.3880    2.8360   -0.8600 H   0  0  0  0  0  0  0  0  0  0  0  0
   -0.2720    2.2400    1.4710 H   0  0  0  0  0  0  0  0  0  0  0  0
   -0.4800    2.5040   -0.2770 H   0  0  0  0  0  0  0  0  0  0  0  0
   -7.7740    1.7780    0.9070 H   0  0  0  0  0  0  0  0  0  0  0  0
   -8.0770    1.3120    2.5980 H   0  0  0  0  0  0  0  0  0  0  0  0
   -4.4620    0.8710    5.7870 H   0  0  0  0  0  0  0  0  0  0  0  0
   -1.4280    2.4360    2.1960 H   0  0  0  0  0  0  0  0  0  0  0  0
    0.1780   -2.6150   -0.8750 H   0  0  0  0  0  0  0  0  0  0  0  0
    2.1280    1.6310    0.7650 H   0  0  0  0  0  0  0  0  0  0  0  0
   -7.4210   -1.0070    2.0790 H   0  0  0  0  0  0  0  0  0  0  0  0
   -7.1080   -0.5420    0.3900 H   0  0  0  0  0  0  0  0  0  0  0  0
  -10.4310   -1.9590    0.3200 H   0  0  0  0  0  0  0  0  0  0  0  0
   -9.0960   -2.5430    1.3430 H   0  0  0  0  0  0  0  0  0  0  0  0
   -8.7840   -2.0750   -0.3460 H   0  0  0  0  0  0  0  0  0  0  0  0
   -2.0770    1.3390    6.2940 H   0  0  0  0  0  0  0  0  0  0  0  0
   -0.5640    2.1190    4.4990 H   0  0  0  0  0  0  0  0  0  0  0  0
    2.6220   -2.4110   -0.5680 H   0  0  0  0  0  0  0  0  0  0  0  0
    3.5960   -0.2890    0.2500 H   0  0  0  0  0  0  0  0  0  0  0  0
  1  2  1  0  0  0  0
  1  3  1  0  0  0  0
  1 18  1  0  0  0  0
  2  4  2  0  0  0  0
  2  9  1  0  0  0  0
  3  5  1  0  0  0  0
  3 12  2  0  0  0  0
  4  7  1  0  0  0  0
  5  7  2  0  0  0  0
  5 19  1  0  0  0  0
  6  8  1  0  0  0  0
  6 10  1  0  0  0  0
  6 13  1  0  0  0  0
  7 20  1  0  0  0  0
  8 14  1  0  0  0  0
  8 16  2  0  0  0  0
  9 14  1  0  0  0  0
 10 11  1  0  0  0  0
 10 30  1  0  0  0  0
 10 31  1  0  0  0  0
 11 15  2  0  0  0  0
 11 22  1  0  0  0  0
 13 17  1  0  0  0  0
 13 32  1  0  0  0  0
 13 33  1  0  0  0  0
 14 34  1  0  0  0  0
 14 35  1  0  0  0  0
 15 17  1  0  0  0  0
 15 23  1  0  0  0  0
 17 36  1  0  0  0  0
 17 37  1  0  0  0  0
 18 24  1  0  0  0  0
 18 38  1  0  0  0  0
 18 39  1  0  0  0  0
 19 26  2  0  0  0  0
 19 40  1  0  0  0  0
 20 27  2  0  0  0  0
 20 41  1  0  0  0  0
 21 24  1  0  0  0  0
 21 25  1  0  0  0  0
 22 28  2  0  0  0  0
 22 42  1  0  0  0  0
 23 29  2  0  0  0  0
 23 43  1  0  0  0  0
 24 44  1  0  0  0  0
 24 45  1  0  0  0  0
 25 46  1  0  0  0  0
 25 47  1  0  0  0  0
 25 48  1  0  0  0  0
 26 27  1  0  0  0  0
 26 49  1  0  0  0  0
 27 50  1  0  0  0  0
 28 29  1  0  0  0  0
 28 51  1  0  0  0  0
 29 52  1  0  0  0  0
M  END
>  <$CLUSTER>
651

>  <INDEX>
426182

$$$$
Enamine T0506-6634
  MOE2020           3D

 29 30  0  0  0  0  0  0  0  0999 V2000
   -0.6980   -0.2560    0.2970 C   0  0  0  0  0  0  0  0  0  0  0  0
    7.0340    6.2150   -0.7690 C   0  0  0  0  0  0  0  0  0  0  0  0
    4.7840    2.7120   -1.7620 N   0  0  0  0  0  0  0  0  0  0  0  0
    0.6090    0.2470   -0.3580 C   0  0  0  0  0  0  0  0  0  0  0  0
    8.1930    6.4740   -1.5020 C   0  0  0  0  0  0  0  0  0  0  0  0
    6.2640    5.0840   -1.0550 C   0  0  0  0  0  0  0  0  0  0  0  0
   -1.4180   -0.9900   -0.4410 O   0  0  0  0  0  0  0  0  0  0  0  0
    4.1760    1.5720   -2.1870 N   0  0  0  0  0  0  0  0  0  0  0  0
    1.1940   -0.5580   -1.4790 C   0  0  0  0  0  0  0  0  0  0  0  0
    1.1770    1.3750    0.0890 C   0  0  0  0  0  0  0  0  0  0  0  0
    8.5850    5.6040   -2.5210 C   0  0  0  0  0  0  0  0  0  0  0  0
    5.8710    3.0040   -2.4110 C   0  0  0  0  0  0  0  0  0  0  0  0
    6.6610    4.2300   -2.0650 C   0  0  0  0  0  0  0  0  0  0  0  0
    6.7310    7.0950    0.1860 F   0  0  0  0  0  0  0  0  0  0  0  0
    2.9850    1.1340   -1.5730 C   0  0  0  0  0  0  0  0  0  0  0  0
   -0.9000    0.1070    1.4920 O   0  5  0  0  0  0  0  0  0  0  0  0
    8.8680    7.5740   -1.1660 F   0  0  0  0  0  0  0  0  0  0  0  0
    7.8190    4.4730   -2.8100 C   0  0  0  0  0  0  0  0  0  0  0  0
    2.3780    1.8340   -0.5170 C   0  0  0  0  0  0  0  0  0  0  0  0
    2.3680   -0.0450   -2.0190 C   0  0  0  0  0  0  0  0  0  0  0  0
    5.3660    4.8800   -0.4910 H   0  0  0  0  0  0  0  0  0  0  0  0
    4.5790    1.0380   -2.9440 H   0  0  0  0  0  0  0  0  0  0  0  0
    0.7380   -1.4680   -1.8400 H   0  0  0  0  0  0  0  0  0  0  0  0
    0.7280    1.9290    0.9000 H   0  0  0  0  0  0  0  0  0  0  0  0
    9.4820    5.8060   -3.0870 H   0  0  0  0  0  0  0  0  0  0  0  0
    6.2090    2.3570   -3.2070 H   0  0  0  0  0  0  0  0  0  0  0  0
    8.1160    3.7960   -3.5970 H   0  0  0  0  0  0  0  0  0  0  0  0
    2.8350    2.7440   -0.1570 H   0  0  0  0  0  0  0  0  0  0  0  0
    2.8330   -0.5860   -2.8300 H   0  0  0  0  0  0  0  0  0  0  0  0
  1  4  1  0  0  0  0
  1  7  2  0  0  0  0
  1 16  1  0  0  0  0
  2  5  2  0  0  0  0
  2  6  1  0  0  0  0
  2 14  1  0  0  0  0
  3  8  1  0  0  0  0
  3 12  2  0  0  0  0
  4  9  1  0  0  0  0
  4 10  2  0  0  0  0
  5 11  1  0  0  0  0
  5 17  1  0  0  0  0
  6 13  2  0  0  0  0
  6 21  1  0  0  0  0
  8 15  1  0  0  0  0
  8 22  1  0  0  0  0
  9 20  2  0  0  0  0
  9 23  1  0  0  0  0
 10 19  1  0  0  0  0
 10 24  1  0  0  0  0
 11 18  2  0  0  0  0
 11 25  1  0  0  0  0
 12 13  1  0  0  0  0
 12 26  1  0  0  0  0
 13 18  1  0  0  0  0
 15 19  2  0  0  0  0
 15 20  1  0  0  0  0
 18 27  1  0  0  0  0
 19 28  1  0  0  0  0
 20 29  1  0  0  0  0
M  CHG  1  16  -1
M  END
>  <$CLUSTER>
652

>  <INDEX>
413923

$$$$
Chembridge 6712579
  MOE2020           3D

 34 35  0  0  0  0  0  0  0  0999 V2000
    0.3670    0.4160   -0.1480 N   0  3  0  0  0  0  0  0  0  0  0  0
   -0.8830    0.2000    0.2200 C   0  0  0  0  0  0  0  0  0  0  0  0
    2.4930   -0.2870   -0.6520 C   0  0  0  0  0  0  0  0  0  0  0  0
    3.3630   -1.4780   -0.7570 C   0  0  0  0  0  0  0  0  0  0  0  0
    1.1880   -0.6960   -0.2480 O   0  0  0  0  0  0  0  0  0  0  0  0
    5.5850   -2.2700   -1.2790 C   0  0  0  0  0  0  0  0  0  0  0  0
    4.6860   -1.2100   -1.1510 C   0  0  0  0  0  0  0  0  0  0  0  0
   -1.7960    1.3590    0.3400 C   0  0  0  0  0  0  0  0  0  0  0  0
    5.1690   -3.5740   -1.0190 C   0  0  0  0  0  0  0  0  0  0  0  0
    2.7670    0.8810   -0.8580 O   0  0  0  0  0  0  0  0  0  0  0  0
    2.9490   -2.7610   -0.5010 C   0  0  0  0  0  0  0  0  0  0  0  0
    3.8530   -3.8190   -0.6300 C   0  0  0  0  0  0  0  0  0  0  0  0
   -2.6090    1.5360    1.4780 C   0  0  0  0  0  0  0  0  0  0  0  0
   -1.8710    2.3340   -0.6820 C   0  0  0  0  0  0  0  0  0  0  0  0
   -1.3690   -0.9930    0.4880 N   0  0  0  0  0  0  0  0  0  0  0  0
    7.1950   -1.9820   -1.7540 Cl  0  0  0  0  0  0  0  0  0  0  0  0
   -3.5230    3.5790    0.5670 C   0  0  0  0  0  0  0  0  0  0  0  0
   -3.4650    2.6330    1.5890 C   0  0  0  0  0  0  0  0  0  0  0  0
   -2.7280    3.4300   -0.5670 C   0  0  0  0  0  0  0  0  0  0  0  0
   -4.6520    5.0400    0.6980 Br  0  0  0  0  0  0  0  0  0  0  0  0
    6.1340   -4.7060   -1.1570 C   0  0  0  0  0  0  0  0  0  0  0  0
    0.7080    1.3460   -0.3470 H   0  0  0  0  0  0  0  0  0  0  0  0
    5.0020   -0.1970   -1.3520 H   0  0  0  0  0  0  0  0  0  0  0  0
    1.9290   -2.9520   -0.2010 H   0  0  0  0  0  0  0  0  0  0  0  0
    3.5310   -4.8300   -0.4280 H   0  0  0  0  0  0  0  0  0  0  0  0
   -2.5690    0.8110    2.2770 H   0  0  0  0  0  0  0  0  0  0  0  0
   -1.2560    2.2290   -1.5640 H   0  0  0  0  0  0  0  0  0  0  0  0
   -0.7760   -1.8080    0.4170 H   0  0  0  0  0  0  0  0  0  0  0  0
   -2.3350   -1.0940    0.7650 H   0  0  0  0  0  0  0  0  0  0  0  0
   -4.0830    2.7490    2.4670 H   0  0  0  0  0  0  0  0  0  0  0  0
   -2.7750    4.1630   -1.3580 H   0  0  0  0  0  0  0  0  0  0  0  0
    7.1050   -4.3200   -1.4670 H   0  0  0  0  0  0  0  0  0  0  0  0
    5.7660   -5.4080   -1.9060 H   0  0  0  0  0  0  0  0  0  0  0  0
    6.2350   -5.2160   -0.1990 H   0  0  0  0  0  0  0  0  0  0  0  0
  1  2  2  0  0  0  0
  1  5  1  0  0  0  0
  1 22  1  0  0  0  0
  2  8  1  0  0  0  0
  2 15  1  0  0  0  0
  3  4  1  0  0  0  0
  3  5  1  0  0  0  0
  3 10  2  0  0  0  0
  4  7  2  0  0  0  0
  4 11  1  0  0  0  0
  6  7  1  0  0  0  0
  6  9  2  0  0  0  0
  6 16  1  0  0  0  0
  7 23  1  0  0  0  0
  8 13  2  0  0  0  0
  8 14  1  0  0  0  0
  9 12  1  0  0  0  0
  9 21  1  0  0  0  0
 11 12  2  0  0  0  0
 11 24  1  0  0  0  0
 12 25  1  0  0  0  0
 13 18  1  0  0  0  0
 13 26  1  0  0  0  0
 14 19  2  0  0  0  0
 14 27  1  0  0  0  0
 15 28  1  0  0  0  0
 15 29  1  0  0  0  0
 17 18  2  0  0  0  0
 17 19  1  0  0  0  0
 17 20  1  0  0  0  0
 18 30  1  0  0  0  0
 19 31  1  0  0  0  0
 21 32  1  0  0  0  0
 21 33  1  0  0  0  0
 21 34  1  0  0  0  0
M  CHG  1   1   1
M  END
>  <$CLUSTER>
653

>  <INDEX>
67577

$$$$
Specs AK-968/33441002
  MOE2020           3D

 34 36  0  0  0  0  0  0  0  0999 V2000
   -0.5370    0.6130   -0.0830 C   0  0  0  0  0  0  0  0  0  0  0  0
    0.4360   -0.5780    0.0800 C   0  0  0  0  0  0  0  0  0  0  0  0
   -1.2250   -8.2470    0.0580 C   0  0  0  0  0  0  0  0  0  0  0  0
   -0.0570   -1.8140    0.2340 C   0  0  0  0  0  0  0  0  0  0  0  0
   -0.0690    1.7370    0.2630 O   0  0  0  0  0  0  0  0  0  0  0  0
   -0.7350   -6.9550    0.2680 C   0  0  0  0  0  0  0  0  0  0  0  0
   -1.3470   -8.7520   -1.2360 C   0  0  0  0  0  0  0  0  0  0  0  0
   -0.9790   -7.9650   -2.3240 C   0  0  0  0  0  0  0  0  0  0  0  0
   -0.3640   -6.1600   -0.8210 C   0  0  0  0  0  0  0  0  0  0  0  0
    0.1270   -4.8860   -0.7460 O   0  0  0  0  0  0  0  0  0  0  0  0
   -1.6810    0.3400   -0.5500 O   0  5  0  0  0  0  0  0  0  0  0  0
    0.8260   -2.9180    0.3900 C   0  0  0  0  0  0  0  0  0  0  0  0
    0.2780   -4.3070    0.5400 C   0  0  0  0  0  0  0  0  0  0  0  0
   -0.4900   -6.6740   -2.1170 C   0  0  0  0  0  0  0  0  0  0  0  0
    1.9080   -0.2970    0.0570 C   0  0  0  0  0  0  0  0  0  0  0  0
    2.7200   -1.4090    0.2030 C   0  0  0  0  0  0  0  0  0  0  0  0
   -1.6040   -9.0590    1.1630 C   0  0  0  0  0  0  0  0  0  0  0  0
    2.2100   -2.6990    0.3640 C   0  0  0  0  0  0  0  0  0  0  0  0
   -1.8460  -10.0640   -1.4280 C   0  0  0  0  0  0  0  0  0  0  0  0
   -2.0930  -10.3500    0.9570 C   0  0  0  0  0  0  0  0  0  0  0  0
   -2.2140  -10.8510   -0.3360 C   0  0  0  0  0  0  0  0  0  0  0  0
   -1.1250   -1.9720    0.2400 H   0  0  0  0  0  0  0  0  0  0  0  0
   -0.6430   -6.5700    1.2730 H   0  0  0  0  0  0  0  0  0  0  0  0
   -1.0720   -8.3530   -3.3280 H   0  0  0  0  0  0  0  0  0  0  0  0
    0.9660   -4.9090    1.1330 H   0  0  0  0  0  0  0  0  0  0  0  0
   -0.6910   -4.2660    1.0380 H   0  0  0  0  0  0  0  0  0  0  0  0
   -0.2060   -6.0670   -2.9640 H   0  0  0  0  0  0  0  0  0  0  0  0
    2.3060    0.7000   -0.0650 H   0  0  0  0  0  0  0  0  0  0  0  0
    3.7910   -1.2730    0.1920 H   0  0  0  0  0  0  0  0  0  0  0  0
   -1.5130   -8.6740    2.1680 H   0  0  0  0  0  0  0  0  0  0  0  0
    2.8870   -3.5340    0.4690 H   0  0  0  0  0  0  0  0  0  0  0  0
   -1.9420  -10.4590   -2.4290 H   0  0  0  0  0  0  0  0  0  0  0  0
   -2.3780  -10.9600    1.8010 H   0  0  0  0  0  0  0  0  0  0  0  0
   -2.5930  -11.8500   -0.4940 H   0  0  0  0  0  0  0  0  0  0  0  0
  1  2  1  0  0  0  0
  1  5  2  0  0  0  0
  1 11  1  0  0  0  0
  2  4  2  0  0  0  0
  2 15  1  0  0  0  0
  3  6  1  0  0  0  0
  3  7  2  0  0  0  0
  3 17  1  0  0  0  0
  4 12  1  0  0  0  0
  4 22  1  0  0  0  0
  6  9  2  0  0  0  0
  6 23  1  0  0  0  0
  7  8  1  0  0  0  0
  7 19  1  0  0  0  0
  8 14  2  0  0  0  0
  8 24  1  0  0  0  0
  9 10  1  0  0  0  0
  9 14  1  0  0  0  0
 10 13  1  0  0  0  0
 12 13  1  0  0  0  0
 12 18  2  0  0  0  0
 13 25  1  0  0  0  0
 13 26  1  0  0  0  0
 14 27  1  0  0  0  0
 15 16  2  0  0  0  0
 15 28  1  0  0  0  0
 16 18  1  0  0  0  0
 16 29  1  0  0  0  0
 17 20  2  0  0  0  0
 17 30  1  0  0  0  0
 18 31  1  0  0  0  0
 19 21  2  0  0  0  0
 19 32  1  0  0  0  0
 20 21  1  0  0  0  0
 20 33  1  0  0  0  0
 21 34  1  0  0  0  0
M  CHG  1  11  -1
M  END
>  <$CLUSTER>
654

>  <INDEX>
503224

$$$$
Enamine T0509-6262
  MOE2020           3D

 47 49  0  0  0  0  0  0  0  0999 V2000
   -7.6550    1.1510   -6.7270 S   0  0  0  0  0  0  0  0  0  0  0  0
   -2.4660    0.5200   -0.4650 N   0  0  0  0  0  0  0  0  0  0  0  0
   -3.3590    0.7880   -1.4470 C   0  0  0  0  0  0  0  0  0  0  0  0
   -7.4830    2.5340   -5.6390 C   0  0  0  0  0  0  0  0  0  0  0  0
   -5.5790    3.5150   -2.5040 C   0  0  0  0  0  0  0  0  0  0  0  0
   -1.7470   -0.7570   -0.3910 C   0  0  0  0  0  0  0  0  0  0  0  0
   -6.4980    3.5340   -3.6870 C   0  0  0  0  0  0  0  0  0  0  0  0
   -6.6080    2.4590   -4.5520 C   0  0  0  0  0  0  0  0  0  0  0  0
   -7.2890   -0.0540   -6.0020 O   0  0  0  0  0  0  0  0  0  0  0  0
   -8.9450    1.2360   -7.3890 O   0  0  0  0  0  0  0  0  0  0  0  0
   -0.2500   -0.6010   -0.2390 C   0  0  0  0  0  0  0  0  0  0  0  0
   -4.9210    2.3430   -2.4330 O   0  0  0  0  0  0  0  0  0  0  0  0
   -6.4740    1.4240   -7.8820 N   0  0  0  0  0  0  0  0  0  0  0  0
   -2.0620    1.3860    0.6490 C   0  0  0  0  0  0  0  0  0  0  0  0
   -4.0260    2.1390   -1.4030 C   0  0  0  0  0  0  0  0  0  0  0  0
    0.3080    0.5990    0.2480 C   0  0  0  0  0  0  0  0  0  0  0  0
   -3.6470    0.0030   -2.3540 O   0  0  0  0  0  0  0  0  0  0  0  0
   -5.4530    4.4440   -1.7180 O   0  0  0  0  0  0  0  0  0  0  0  0
   -0.5860    1.7820    0.5330 C   0  0  0  0  0  0  0  0  0  0  0  0
   -8.2400    3.6840   -5.8540 C   0  0  0  0  0  0  0  0  0  0  0  0
   -7.2530    4.6930   -3.8920 C   0  0  0  0  0  0  0  0  0  0  0  0
   -8.1250    4.7640   -4.9800 C   0  0  0  0  0  0  0  0  0  0  0  0
    0.5980   -1.6850   -0.5200 C   0  0  0  0  0  0  0  0  0  0  0  0
    1.6980    0.7060    0.4110 C   0  0  0  0  0  0  0  0  0  0  0  0
   -6.6050    2.5760   -8.7690 C   0  0  0  0  0  0  0  0  0  0  0  0
    1.9790   -1.5720   -0.3450 C   0  0  0  0  0  0  0  0  0  0  0  0
    2.5280   -0.3770    0.1180 C   0  0  0  0  0  0  0  0  0  0  0  0
   -1.9440   -1.3170   -1.3050 H   0  0  0  0  0  0  0  0  0  0  0  0
   -2.1240   -1.3160    0.4660 H   0  0  0  0  0  0  0  0  0  0  0  0
   -6.0210    1.5670   -4.3880 H   0  0  0  0  0  0  0  0  0  0  0  0
   -6.4370    0.6020   -8.4680 H   0  0  0  0  0  0  0  0  0  0  0  0
   -2.2150    0.8530    1.5880 H   0  0  0  0  0  0  0  0  0  0  0  0
   -2.6740    2.2880    0.6390 H   0  0  0  0  0  0  0  0  0  0  0  0
   -3.2550    2.9070   -1.4590 H   0  0  0  0  0  0  0  0  0  0  0  0
   -4.5610    2.2290   -0.4580 H   0  0  0  0  0  0  0  0  0  0  0  0
   -0.2720    2.2400    1.4710 H   0  0  0  0  0  0  0  0  0  0  0  0
   -0.4800    2.5040   -0.2770 H   0  0  0  0  0  0  0  0  0  0  0  0
   -8.9140    3.7390   -6.6960 H   0  0  0  0  0  0  0  0  0  0  0  0
   -7.1620    5.5280   -3.2130 H   0  0  0  0  0  0  0  0  0  0  0  0
   -8.7110    5.6560   -5.1450 H   0  0  0  0  0  0  0  0  0  0  0  0
    0.1780   -2.6150   -0.8750 H   0  0  0  0  0  0  0  0  0  0  0  0
    2.1280    1.6310    0.7650 H   0  0  0  0  0  0  0  0  0  0  0  0
   -6.6490    3.4890   -8.1750 H   0  0  0  0  0  0  0  0  0  0  0  0
   -7.5180    2.4810   -9.3560 H   0  0  0  0  0  0  0  0  0  0  0  0
   -5.7460    2.6190   -9.4380 H   0  0  0  0  0  0  0  0  0  0  0  0
    2.6220   -2.4110   -0.5680 H   0  0  0  0  0  0  0  0  0  0  0  0
    3.5960   -0.2890    0.2500 H   0  0  0  0  0  0  0  0  0  0  0  0
  1  4  1  0  0  0  0
  1  9  2  0  0  0  0
  1 10  2  0  0  0  0
  1 13  1  0  0  0  0
  2  3  1  0  0  0  0
  2  6  1  0  0  0  0
  2 14  1  0  0  0  0
  3 15  1  0  0  0  0
  3 17  2  0  0  0  0
  4  8  2  0  0  0  0
  4 20  1  0  0  0  0
  5  7  1  0  0  0  0
  5 12  1  0  0  0  0
  5 18  2  0  0  0  0
  6 11  1  0  0  0  0
  6 28  1  0  0  0  0
  6 29  1  0  0  0  0
  7  8  1  0  0  0  0
  7 21  2  0  0  0  0
  8 30  1  0  0  0  0
 11 16  2  0  0  0  0
 11 23  1  0  0  0  0
 12 15  1  0  0  0  0
 13 25  1  0  0  0  0
 13 31  1  0  0  0  0
 14 19  1  0  0  0  0
 14 32  1  0  0  0  0
 14 33  1  0  0  0  0
 15 34  1  0  0  0  0
 15 35  1  0  0  0  0
 16 19  1  0  0  0  0
 16 24  1  0  0  0  0
 19 36  1  0  0  0  0
 19 37  1  0  0  0  0
 20 22  2  0  0  0  0
 20 38  1  0  0  0  0
 21 22  1  0  0  0  0
 21 39  1  0  0  0  0
 22 40  1  0  0  0  0
 23 26  2  0  0  0  0
 23 41  1  0  0  0  0
 24 27  2  0  0  0  0
 24 42  1  0  0  0  0
 25 43  1  0  0  0  0
 25 44  1  0  0  0  0
 25 45  1  0  0  0  0
 26 27  1  0  0  0  0
 26 46  1  0  0  0  0
 27 47  1  0  0  0  0
M  END
>  <$CLUSTER>
655

>  <INDEX>
420875

$$$$
Peakdale 1000170
  MOE2020           3D

 35 37  0  0  0  0  0  0  0  0999 V2000
   -1.2970   -2.2660    0.6420 C   0  0  0  0  0  0  0  0  0  0  0  0
   -1.5010   -3.1740   -0.3390 N   0  0  0  0  0  0  0  0  0  0  0  0
   -1.9570   -2.3010    1.8210 N   0  0  0  0  0  0  0  0  0  0  0  0
   -0.4190   -1.3050    0.4390 N   0  0  0  0  0  0  0  0  0  0  0  0
   -3.1240   -4.2630    1.0630 C   0  0  0  0  0  0  0  0  0  0  0  0
   -2.8540   -3.2970    2.0050 C   0  0  0  0  0  0  0  0  0  0  0  0
   -2.4080   -4.1500   -0.1060 C   0  0  0  0  0  0  0  0  0  0  0  0
   -4.1140   -5.3450    1.2910 C   0  0  0  0  0  0  0  0  0  0  0  0
   -5.3880   -5.0630    1.8200 C   0  0  0  0  0  0  0  0  0  0  0  0
   -3.8080   -6.6850    0.9870 C   0  0  0  0  0  0  0  0  0  0  0  0
   -5.9940   -7.4010    1.7260 C   0  0  0  0  0  0  0  0  0  0  0  0
   -6.3190   -6.0820    2.0340 C   0  0  0  0  0  0  0  0  0  0  0  0
   -4.7390   -7.7020    1.2020 C   0  0  0  0  0  0  0  0  0  0  0  0
   -7.1380   -8.6320    1.9940 Cl  0  0  0  0  0  0  0  0  0  0  0  0
   -0.0980   -0.2550    1.4120 C   0  0  0  0  0  0  0  0  0  0  0  0
    0.3670   -1.1450   -0.7900 C   0  0  0  0  0  0  0  0  0  0  0  0
   -0.3630    1.1370    0.8430 C   0  0  0  0  0  0  0  0  0  0  0  0
    0.1190    0.2150   -1.4400 C   0  0  0  0  0  0  0  0  0  0  0  0
    0.3930    1.3540   -0.4640 C   0  0  0  0  0  0  0  0  0  0  0  0
   -3.3880   -3.3360    2.9430 H   0  0  0  0  0  0  0  0  0  0  0  0
   -2.5800   -4.8820   -0.8820 H   0  0  0  0  0  0  0  0  0  0  0  0
   -5.6490   -4.0440    2.0640 H   0  0  0  0  0  0  0  0  0  0  0  0
   -2.8380   -6.9300    0.5810 H   0  0  0  0  0  0  0  0  0  0  0  0
   -7.2920   -5.8470    2.4390 H   0  0  0  0  0  0  0  0  0  0  0  0
   -4.4860   -8.7240    0.9620 H   0  0  0  0  0  0  0  0  0  0  0  0
    0.9550   -0.3320    1.6820 H   0  0  0  0  0  0  0  0  0  0  0  0
   -0.7120   -0.3970    2.3010 H   0  0  0  0  0  0  0  0  0  0  0  0
    0.0880   -1.9300   -1.4930 H   0  0  0  0  0  0  0  0  0  0  0  0
    1.4260   -1.2340   -0.5470 H   0  0  0  0  0  0  0  0  0  0  0  0
   -0.0410    1.8840    1.5680 H   0  0  0  0  0  0  0  0  0  0  0  0
   -1.4310    1.2480    0.6580 H   0  0  0  0  0  0  0  0  0  0  0  0
   -0.9200    0.2690   -1.7660 H   0  0  0  0  0  0  0  0  0  0  0  0
    0.7760    0.3210   -2.3030 H   0  0  0  0  0  0  0  0  0  0  0  0
    1.4620    1.3980   -0.2560 H   0  0  0  0  0  0  0  0  0  0  0  0
    0.0710    2.2940   -0.9120 H   0  0  0  0  0  0  0  0  0  0  0  0
  1  2  1  0  0  0  0
  1  3  2  0  0  0  0
  1  4  1  0  0  0  0
  2  7  2  0  0  0  0
  3  6  1  0  0  0  0
  4 15  1  0  0  0  0
  4 16  1  0  0  0  0
  5  6  2  0  0  0  0
  5  7  1  0  0  0  0
  5  8  1  0  0  0  0
  6 20  1  0  0  0  0
  7 21  1  0  0  0  0
  8  9  2  0  0  0  0
  8 10  1  0  0  0  0
  9 12  1  0  0  0  0
  9 22  1  0  0  0  0
 10 13  2  0  0  0  0
 10 23  1  0  0  0  0
 11 12  2  0  0  0  0
 11 13  1  0  0  0  0
 11 14  1  0  0  0  0
 12 24  1  0  0  0  0
 13 25  1  0  0  0  0
 15 17  1  0  0  0  0
 15 26  1  0  0  0  0
 15 27  1  0  0  0  0
 16 18  1  0  0  0  0
 16 28  1  0  0  0  0
 16 29  1  0  0  0  0
 17 19  1  0  0  0  0
 17 30  1  0  0  0  0
 17 31  1  0  0  0  0
 18 19  1  0  0  0  0
 18 32  1  0  0  0  0
 18 33  1  0  0  0  0
 19 34  1  0  0  0  0
 19 35  1  0  0  0  0
M  END
>  <$CLUSTER>
656

>  <INDEX>
432213

$$$$
Peakdale 1001249
  MOE2020           3D

 40 43  0  0  0  0  0  0  0  0999 V2000
   -2.8560   -0.4660   -0.5840 C   0  0  0  0  0  0  0  0  0  0  0  0
   -3.4800   -0.0340    0.5280 N   0  0  0  0  0  0  0  0  0  0  0  0
   -1.5260   -0.4570   -0.8000 N   0  0  0  0  0  0  0  0  0  0  0  0
   -0.7450    0.0390    0.1960 C   0  0  0  0  0  0  0  0  0  0  0  0
   -1.2960    0.5030    1.3850 C   0  0  0  0  0  0  0  0  0  0  0  0
   -2.6710    0.4430    1.4970 C   0  0  0  0  0  0  0  0  0  0  0  0
    0.7070    0.0380   -0.0740 C   0  0  0  0  0  0  0  0  0  0  0  0
    1.6030    0.9360    0.5340 C   0  0  0  0  0  0  0  0  0  0  0  0
    2.9670    0.8860    0.2410 C   0  0  0  0  0  0  0  0  0  0  0  0
    2.6030   -0.9510   -1.2840 N   0  0  0  0  0  0  0  0  0  0  0  0
   -3.7820   -0.9990   -1.6730 C   0  0  0  0  0  0  0  0  0  0  0  0
    3.9280    1.8060    0.8450 C   0  0  0  0  0  0  0  0  0  0  0  0
    1.2760   -0.8730   -0.9770 C   0  0  0  0  0  0  0  0  0  0  0  0
   -3.2790    0.8890    2.6490 O   0  0  0  0  0  0  0  0  0  0  0  0
    3.4170   -0.0640   -0.6620 C   0  0  0  0  0  0  0  0  0  0  0  0
   -3.2750   -1.7680   -2.7250 C   0  0  0  0  0  0  0  0  0  0  0  0
   -5.1550   -0.7220   -1.6230 C   0  0  0  0  0  0  0  0  0  0  0  0
    3.6310    3.1770    0.8920 C   0  0  0  0  0  0  0  0  0  0  0  0
    5.1180    1.3570    1.4390 C   0  0  0  0  0  0  0  0  0  0  0  0
    4.5060    4.0740    1.5080 C   0  0  0  0  0  0  0  0  0  0  0  0
   -6.0090   -1.2020   -2.6190 C   0  0  0  0  0  0  0  0  0  0  0  0
   -4.1320   -2.2470   -3.7210 C   0  0  0  0  0  0  0  0  0  0  0  0
    5.9910    2.2550    2.0540 C   0  0  0  0  0  0  0  0  0  0  0  0
   -5.4970   -1.9640   -3.6700 C   0  0  0  0  0  0  0  0  0  0  0  0
    5.6850    3.6130    2.0880 C   0  0  0  0  0  0  0  0  0  0  0  0
   -0.6790    0.8910    2.1820 H   0  0  0  0  0  0  0  0  0  0  0  0
    1.2320    1.6710    1.2340 H   0  0  0  0  0  0  0  0  0  0  0  0
    0.6110   -1.5680   -1.4680 H   0  0  0  0  0  0  0  0  0  0  0  0
   -2.6800    1.2240    3.3200 H   0  0  0  0  0  0  0  0  0  0  0  0
    4.4740   -0.0990   -0.8820 H   0  0  0  0  0  0  0  0  0  0  0  0
   -2.2190   -1.9930   -2.7680 H   0  0  0  0  0  0  0  0  0  0  0  0
   -5.5550   -0.1340   -0.8100 H   0  0  0  0  0  0  0  0  0  0  0  0
    2.7170    3.5420    0.4470 H   0  0  0  0  0  0  0  0  0  0  0  0
    5.3600    0.3050    1.4200 H   0  0  0  0  0  0  0  0  0  0  0  0
    4.2680    5.1270    1.5350 H   0  0  0  0  0  0  0  0  0  0  0  0
   -7.0660   -0.9830   -2.5760 H   0  0  0  0  0  0  0  0  0  0  0  0
   -3.7350   -2.8380   -4.5330 H   0  0  0  0  0  0  0  0  0  0  0  0
    6.9050    1.8960    2.5040 H   0  0  0  0  0  0  0  0  0  0  0  0
   -6.1560   -2.3340   -4.4420 H   0  0  0  0  0  0  0  0  0  0  0  0
    6.3610    4.3080    2.5640 H   0  0  0  0  0  0  0  0  0  0  0  0
  1  2  1  0  0  0  0
  1  3  2  0  0  0  0
  1 11  1  0  0  0  0
  2  6  2  0  0  0  0
  3  4  1  0  0  0  0
  4  5  2  0  0  0  0
  4  7  1  0  0  0  0
  5  6  1  0  0  0  0
  5 26  1  0  0  0  0
  6 14  1  0  0  0  0
  7  8  2  0  0  0  0
  7 13  1  0  0  0  0
  8  9  1  0  0  0  0
  8 27  1  0  0  0  0
  9 12  1  0  0  0  0
  9 15  2  0  0  0  0
 10 13  2  0  0  0  0
 10 15  1  0  0  0  0
 11 16  1  0  0  0  0
 11 17  2  0  0  0  0
 12 18  2  0  0  0  0
 12 19  1  0  0  0  0
 13 28  1  0  0  0  0
 14 29  1  0  0  0  0
 15 30  1  0  0  0  0
 16 22  2  0  0  0  0
 16 31  1  0  0  0  0
 17 21  1  0  0  0  0
 17 32  1  0  0  0  0
 18 20  1  0  0  0  0
 18 33  1  0  0  0  0
 19 23  2  0  0  0  0
 19 34  1  0  0  0  0
 20 25  2  0  0  0  0
 20 35  1  0  0  0  0
 21 24  2  0  0  0  0
 21 36  1  0  0  0  0
 22 24  1  0  0  0  0
 22 37  1  0  0  0  0
 23 25  1  0  0  0  0
 23 38  1  0  0  0  0
 24 39  1  0  0  0  0
 25 40  1  0  0  0  0
M  END
>  <$CLUSTER>
657

>  <INDEX>
432861

$$$$
Peakdale 1003635
  MOE2020           3D

 41 43  0  0  0  0  0  0  0  0999 V2000
    0.1760    0.2260   -0.2200 C   0  0  0  0  0  0  0  0  0  0  0  0
    1.0770    0.9760   -0.8970 N   0  0  0  0  0  0  0  0  0  0  0  0
    1.2920   -0.7600   -2.5460 N   0  0  0  0  0  0  0  0  0  0  0  0
    0.3910   -1.4750   -1.8410 C   0  0  0  0  0  0  0  0  0  0  0  0
   -0.1980   -1.0300   -0.6740 C   0  0  0  0  0  0  0  0  0  0  0  0
    1.5890    0.4450   -2.0250 C   0  0  0  0  0  0  0  0  0  0  0  0
   -0.3390    0.7970    0.9390 N   0  0  0  0  0  0  0  0  0  0  0  0
    0.0640   -2.8230   -2.4270 C   0  0  0  0  0  0  0  0  0  0  0  0
    0.0980   -3.0200   -3.8220 C   0  0  0  0  0  0  0  0  0  0  0  0
   -0.2760   -3.9300   -1.6220 C   0  0  0  0  0  0  0  0  0  0  0  0
   -0.5450   -5.3350   -3.5720 C   0  0  0  0  0  0  0  0  0  0  0  0
   -0.2050   -4.2600   -4.3890 C   0  0  0  0  0  0  0  0  0  0  0  0
   -0.5780   -5.1710   -2.1900 C   0  0  0  0  0  0  0  0  0  0  0  0
   -0.8240   -6.4820   -4.1910 F   0  0  0  0  0  0  0  0  0  0  0  0
   -1.3160    0.2020    1.8440 C   0  0  0  0  0  0  0  0  0  0  0  0
    2.6000    1.3070   -2.7730 C   0  0  0  0  0  0  0  0  0  0  0  0
   -2.0640    1.3210    2.5700 C   0  0  0  0  0  0  0  0  0  0  0  0
   -0.6070   -0.7030    2.8490 C   0  0  0  0  0  0  0  0  0  0  0  0
   -3.0550    0.7540    3.5970 C   0  0  0  0  0  0  0  0  0  0  0  0
   -1.5840   -1.2800    3.8730 C   0  0  0  0  0  0  0  0  0  0  0  0
   -2.3580   -0.1760    4.5860 C   0  0  0  0  0  0  0  0  0  0  0  0
   -0.9170   -1.6330   -0.1390 H   0  0  0  0  0  0  0  0  0  0  0  0
   -0.0020    1.7180    1.1790 H   0  0  0  0  0  0  0  0  0  0  0  0
    0.3640   -2.1950   -4.4660 H   0  0  0  0  0  0  0  0  0  0  0  0
   -0.3030   -3.8170   -0.5480 H   0  0  0  0  0  0  0  0  0  0  0  0
   -0.1760   -4.3850   -5.4610 H   0  0  0  0  0  0  0  0  0  0  0  0
   -0.8380   -6.0050   -1.5550 H   0  0  0  0  0  0  0  0  0  0  0  0
   -2.0270   -0.4010    1.2790 H   0  0  0  0  0  0  0  0  0  0  0  0
    2.7410    2.2470   -2.2400 H   0  0  0  0  0  0  0  0  0  0  0  0
    2.2300    1.5110   -3.7780 H   0  0  0  0  0  0  0  0  0  0  0  0
    3.5510    0.7790   -2.8360 H   0  0  0  0  0  0  0  0  0  0  0  0
   -2.6120    1.9150    1.8380 H   0  0  0  0  0  0  0  0  0  0  0  0
   -1.3420    1.9550    3.0850 H   0  0  0  0  0  0  0  0  0  0  0  0
    0.1530   -0.1230    3.3730 H   0  0  0  0  0  0  0  0  0  0  0  0
   -0.1320   -1.5240    2.3120 H   0  0  0  0  0  0  0  0  0  0  0  0
   -3.8310    0.1970    3.0720 H   0  0  0  0  0  0  0  0  0  0  0  0
   -3.5090    1.5790    4.1450 H   0  0  0  0  0  0  0  0  0  0  0  0
   -1.0250   -1.8550    4.6110 H   0  0  0  0  0  0  0  0  0  0  0  0
   -2.2900   -1.9340    3.3610 H   0  0  0  0  0  0  0  0  0  0  0  0
   -3.1090   -0.6310    5.2320 H   0  0  0  0  0  0  0  0  0  0  0  0
   -1.6640    0.4080    5.1910 H   0  0  0  0  0  0  0  0  0  0  0  0
  1  2  1  0  0  0  0
  1  5  2  0  0  0  0
  1  7  1  0  0  0  0
  2  6  2  0  0  0  0
  3  4  2  0  0  0  0
  3  6  1  0  0  0  0
  4  5  1  0  0  0  0
  4  8  1  0  0  0  0
  5 22  1  0  0  0  0
  6 16  1  0  0  0  0
  7 15  1  0  0  0  0
  7 23  1  0  0  0  0
  8  9  2  0  0  0  0
  8 10  1  0  0  0  0
  9 12  1  0  0  0  0
  9 24  1  0  0  0  0
 10 13  2  0  0  0  0
 10 25  1  0  0  0  0
 11 12  2  0  0  0  0
 11 13  1  0  0  0  0
 11 14  1  0  0  0  0
 12 26  1  0  0  0  0
 13 27  1  0  0  0  0
 15 17  1  0  0  0  0
 15 18  1  0  0  0  0
 15 28  1  0  0  0  0
 16 29  1  0  0  0  0
 16 30  1  0  0  0  0
 16 31  1  0  0  0  0
 17 19  1  0  0  0  0
 17 32  1  0  0  0  0
 17 33  1  0  0  0  0
 18 20  1  0  0  0  0
 18 34  1  0  0  0  0
 18 35  1  0  0  0  0
 19 21  1  0  0  0  0
 19 36  1  0  0  0  0
 19 37  1  0  0  0  0
 20 21  1  0  0  0  0
 20 38  1  0  0  0  0
 20 39  1  0  0  0  0
 21 40  1  0  0  0  0
 21 41  1  0  0  0  0
M  END
>  <$CLUSTER>
658

>  <INDEX>
433868

$$$$
Peakdale 1001888
  MOE2020           3D

 57 61  0  0  0  0  0  0  0  0999 V2000
    1.1020   -3.0670   -2.1920 N   0  0  0  0  0  0  0  0  0  0  0  0
   -0.0330   -2.3280   -2.1110 C   0  0  0  0  0  0  0  0  0  0  0  0
    1.2710   -3.8330   -3.2890 C   0  0  0  0  0  0  0  0  0  0  0  0
    0.4170   -3.9410   -4.3230 N   0  0  0  0  0  0  0  0  0  0  0  0
   -0.9740   -2.3770   -3.1340 C   0  0  0  0  0  0  0  0  0  0  0  0
   -0.7010   -3.1960   -4.2130 C   0  0  0  0  0  0  0  0  0  0  0  0
   -0.2100   -1.5620   -1.0230 N   0  0  0  0  0  0  0  0  0  0  0  0
   -1.6500   -3.3270   -5.3700 C   0  0  0  0  0  0  0  0  0  0  0  0
   -3.0350   -3.1070   -5.2680 C   0  0  0  0  0  0  0  0  0  0  0  0
    0.0510    0.8220    0.6960 N   0  3  0  0  0  0  0  0  0  0  0  0
   -3.8610   -3.2460   -6.3850 C   0  0  0  0  0  0  0  0  0  0  0  0
   -1.9600   -3.8370   -7.7530 N   0  0  0  0  0  0  0  0  0  0  0  0
    2.5420   -4.6690   -3.4190 C   0  0  0  0  0  0  0  0  0  0  0  0
   -1.3610   -0.6890   -0.7360 C   0  0  0  0  0  0  0  0  0  0  0  0
    0.7800   -1.5030    0.0660 C   0  0  0  0  0  0  0  0  0  0  0  0
   -5.3050   -3.0350   -6.3180 C   0  0  0  0  0  0  0  0  0  0  0  0
    1.2470   -0.0640    0.3930 C   0  0  0  0  0  0  0  0  0  0  0  0
   -0.9610    0.7750   -0.4350 C   0  0  0  0  0  0  0  0  0  0  0  0
   -1.1830   -3.6950   -6.6410 C   0  0  0  0  0  0  0  0  0  0  0  0
   -3.2860   -3.6060   -7.5930 C   0  0  0  0  0  0  0  0  0  0  0  0
    0.4550    2.2220    1.0390 C   0  0  0  0  0  0  0  0  0  0  0  0
    3.3520   -4.9120   -2.3050 C   0  0  0  0  0  0  0  0  0  0  0  0
    2.9040   -5.2060   -4.6610 C   0  0  0  0  0  0  0  0  0  0  0  0
   -6.0360   -3.6140   -5.2700 C   0  0  0  0  0  0  0  0  0  0  0  0
   -5.9820   -2.2170   -7.2370 C   0  0  0  0  0  0  0  0  0  0  0  0
    4.5170   -5.6750   -2.4350 C   0  0  0  0  0  0  0  0  0  0  0  0
    4.0680   -5.9680   -4.7900 C   0  0  0  0  0  0  0  0  0  0  0  0
   -7.4090   -3.3890   -5.1500 C   0  0  0  0  0  0  0  0  0  0  0  0
   -7.3540   -1.9930   -7.1150 C   0  0  0  0  0  0  0  0  0  0  0  0
   -8.0670   -2.5790   -6.0730 C   0  0  0  0  0  0  0  0  0  0  0  0
    4.8760   -6.2020   -3.6760 C   0  0  0  0  0  0  0  0  0  0  0  0
   -1.8840   -1.7970   -3.0870 H   0  0  0  0  0  0  0  0  0  0  0  0
   -3.4640   -2.8280   -4.3170 H   0  0  0  0  0  0  0  0  0  0  0  0
   -0.4000    0.4520    1.5210 H   0  0  0  0  0  0  0  0  0  0  0  0
   -1.8900   -1.0880    0.1300 H   0  0  0  0  0  0  0  0  0  0  0  0
   -2.0240   -0.6950   -1.6010 H   0  0  0  0  0  0  0  0  0  0  0  0
    1.6500   -2.0910   -0.2260 H   0  0  0  0  0  0  0  0  0  0  0  0
    0.3340   -1.9340    0.9620 H   0  0  0  0  0  0  0  0  0  0  0  0
    1.9060   -0.0880    1.2610 H   0  0  0  0  0  0  0  0  0  0  0  0
    1.7880    0.3420   -0.4620 H   0  0  0  0  0  0  0  0  0  0  0  0
   -0.5230    1.2190   -1.3290 H   0  0  0  0  0  0  0  0  0  0  0  0
   -1.8490    1.3390   -0.1470 H   0  0  0  0  0  0  0  0  0  0  0  0
   -0.1240   -3.8810   -6.7470 H   0  0  0  0  0  0  0  0  0  0  0  0
   -3.9300   -3.7080   -8.4540 H   0  0  0  0  0  0  0  0  0  0  0  0
    0.9500    2.6780    0.1820 H   0  0  0  0  0  0  0  0  0  0  0  0
    1.1390    2.2050    1.8870 H   0  0  0  0  0  0  0  0  0  0  0  0
   -0.4300    2.8030    1.2980 H   0  0  0  0  0  0  0  0  0  0  0  0
    3.0770   -4.5090   -1.3410 H   0  0  0  0  0  0  0  0  0  0  0  0
    2.2790   -5.0300   -5.5240 H   0  0  0  0  0  0  0  0  0  0  0  0
   -5.5320   -4.2400   -4.5490 H   0  0  0  0  0  0  0  0  0  0  0  0
   -5.4350   -1.7570   -8.0470 H   0  0  0  0  0  0  0  0  0  0  0  0
    5.1410   -5.8570   -1.5720 H   0  0  0  0  0  0  0  0  0  0  0  0
    4.3430   -6.3760   -5.7520 H   0  0  0  0  0  0  0  0  0  0  0  0
   -7.9610   -3.8430   -4.3410 H   0  0  0  0  0  0  0  0  0  0  0  0
   -7.8630   -1.3640   -7.8300 H   0  0  0  0  0  0  0  0  0  0  0  0
   -9.1290   -2.4060   -5.9800 H   0  0  0  0  0  0  0  0  0  0  0  0
    5.7770   -6.7900   -3.7740 H   0  0  0  0  0  0  0  0  0  0  0  0
  1  2  1  0  0  0  0
  1  3  2  0  0  0  0
  2  5  2  0  0  0  0
  2  7  1  0  0  0  0
  3  4  1  0  0  0  0
  3 13  1  0  0  0  0
  4  6  2  0  0  0  0
  5  6  1  0  0  0  0
  5 32  1  0  0  0  0
  6  8  1  0  0  0  0
  7 14  1  0  0  0  0
  7 15  1  0  0  0  0
  8  9  2  0  0  0  0
  8 19  1  0  0  0  0
  9 11  1  0  0  0  0
  9 33  1  0  0  0  0
 10 17  1  0  0  0  0
 10 18  1  0  0  0  0
 10 21  1  0  0  0  0
 10 34  1  0  0  0  0
 11 16  1  0  0  0  0
 11 20  2  0  0  0  0
 12 19  2  0  0  0  0
 12 20  1  0  0  0  0
 13 22  2  0  0  0  0
 13 23  1  0  0  0  0
 14 18  1  0  0  0  0
 14 35  1  0  0  0  0
 14 36  1  0  0  0  0
 15 17  1  0  0  0  0
 15 37  1  0  0  0  0
 15 38  1  0  0  0  0
 16 24  2  0  0  0  0
 16 25  1  0  0  0  0
 17 39  1  0  0  0  0
 17 40  1  0  0  0  0
 18 41  1  0  0  0  0
 18 42  1  0  0  0  0
 19 43  1  0  0  0  0
 20 44  1  0  0  0  0
 21 45  1  0  0  0  0
 21 46  1  0  0  0  0
 21 47  1  0  0  0  0
 22 26  1  0  0  0  0
 22 48  1  0  0  0  0
 23 27  2  0  0  0  0
 23 49  1  0  0  0  0
 24 28  1  0  0  0  0
 24 50  1  0  0  0  0
 25 29  2  0  0  0  0
 25 51  1  0  0  0  0
 26 31  2  0  0  0  0
 26 52  1  0  0  0  0
 27 31  1  0  0  0  0
 27 53  1  0  0  0  0
 28 30  2  0  0  0  0
 28 54  1  0  0  0  0
 29 30  1  0  0  0  0
 29 55  1  0  0  0  0
 30 56  1  0  0  0  0
 31 57  1  0  0  0  0
M  CHG  1  10   1
M  END
>  <$CLUSTER>
659

>  <INDEX>
433049

$$$$
MDPI 1268
  MOE2020           3D

 39 40  0  0  1  0  0  0  0  0999 V2000
   -1.7340   -0.3590    0.5070 C   0  0  3  0  0  0  0  0  0  0  0  0
   -2.5960   -0.4150   -0.7490 C   0  0  3  0  0  0  0  0  0  0  0  0
   -0.2720   -0.1440    0.1870 C   0  0  0  0  0  0  0  0  0  0  0  0
   -2.6110    0.8780   -1.5720 C   0  0  0  0  0  0  0  0  0  0  0  0
   -2.2300    0.6780    1.3520 O   0  0  0  0  0  0  0  0  0  0  0  0
   -7.1450   -1.6810   -2.3430 O   0  0  0  0  0  0  0  0  0  0  0  0
   -4.0600   -0.7930   -0.4120 C   0  0  0  0  0  0  0  0  0  0  0  0
   -2.0770    0.8830   -2.8650 C   0  0  0  0  0  0  0  0  0  0  0  0
    0.6470   -1.1900    0.3580 C   0  0  0  0  0  0  0  0  0  0  0  0
   -3.0330    2.0940   -1.0120 C   0  0  0  0  0  0  0  0  0  0  0  0
    0.1920    1.0890   -0.2980 C   0  0  0  0  0  0  0  0  0  0  0  0
   -6.3530   -1.4300   -1.1890 C   0  0  0  0  0  0  0  0  0  0  0  0
   -4.9690   -1.0750   -1.5790 C   0  0  0  0  0  0  0  0  0  0  0  0
   -2.9860    3.2710   -1.7580 C   0  0  0  0  0  0  0  0  0  0  0  0
    1.5430    1.2720   -0.5970 C   0  0  0  0  0  0  0  0  0  0  0  0
   -2.0310    2.0620   -3.6100 C   0  0  0  0  0  0  0  0  0  0  0  0
    1.9980   -1.0050    0.0580 C   0  0  0  0  0  0  0  0  0  0  0  0
   -2.4840    3.2560   -3.0560 C   0  0  0  0  0  0  0  0  0  0  0  0
    2.4460    0.2250   -0.4190 C   0  0  0  0  0  0  0  0  0  0  0  0
   -1.7960   -1.3190    1.0190 H   0  0  0  0  0  0  0  0  0  0  0  0
   -2.1250   -1.1850   -1.3600 H   0  0  0  0  0  0  0  0  0  0  0  0
   -2.1590    1.5050    0.8690 H   0  0  0  0  0  0  0  0  0  0  0  0
   -8.0290   -1.9060   -2.0450 H   0  0  0  0  0  0  0  0  0  0  0  0
   -4.4930    0.0330    0.1530 H   0  0  0  0  0  0  0  0  0  0  0  0
   -4.0360   -1.6870    0.2120 H   0  0  0  0  0  0  0  0  0  0  0  0
   -1.6970   -0.0340   -3.2900 H   0  0  0  0  0  0  0  0  0  0  0  0
    0.3060   -2.1470    0.7250 H   0  0  0  0  0  0  0  0  0  0  0  0
   -3.3970    2.1180    0.0050 H   0  0  0  0  0  0  0  0  0  0  0  0
   -0.5030    1.9030   -0.4410 H   0  0  0  0  0  0  0  0  0  0  0  0
   -6.3320   -2.3240   -0.5660 H   0  0  0  0  0  0  0  0  0  0  0  0
   -6.7900   -0.6050   -0.6260 H   0  0  0  0  0  0  0  0  0  0  0  0
   -4.5490   -1.9040   -2.1480 H   0  0  0  0  0  0  0  0  0  0  0  0
   -5.0070   -0.1850   -2.2070 H   0  0  0  0  0  0  0  0  0  0  0  0
   -3.3400    4.1960   -1.3280 H   0  0  0  0  0  0  0  0  0  0  0  0
    1.8890    2.2260   -0.9670 H   0  0  0  0  0  0  0  0  0  0  0  0
   -1.6430    2.0480   -4.6180 H   0  0  0  0  0  0  0  0  0  0  0  0
    2.6970   -1.8170    0.1960 H   0  0  0  0  0  0  0  0  0  0  0  0
   -2.4460    4.1690   -3.6320 H   0  0  0  0  0  0  0  0  0  0  0  0
    3.4910    0.3670   -0.6510 H   0  0  0  0  0  0  0  0  0  0  0  0
  1  2  1  0  0  0  0
  1  3  1  0  0  0  0
  1  5  1  0  0  0  0
  1 20  1  0  0  0  0
  2  4  1  0  0  0  0
  2  7  1  0  0  0  0
  2 21  1  0  0  0  0
  3  9  1  0  0  0  0
  3 11  2  0  0  0  0
  4  8  1  0  0  0  0
  4 10  2  0  0  0  0
  5 22  1  0  0  0  0
  6 12  1  0  0  0  0
  6 23  1  0  0  0  0
  7 13  1  0  0  0  0
  7 24  1  0  0  0  0
  7 25  1  0  0  0  0
  8 16  2  0  0  0  0
  8 26  1  0  0  0  0
  9 17  2  0  0  0  0
  9 27  1  0  0  0  0
 10 14  1  0  0  0  0
 10 28  1  0  0  0  0
 11 15  1  0  0  0  0
 11 29  1  0  0  0  0
 12 13  1  0  0  0  0
 12 30  1  0  0  0  0
 12 31  1  0  0  0  0
 13 32  1  0  0  0  0
 13 33  1  0  0  0  0
 14 18  2  0  0  0  0
 14 34  1  0  0  0  0
 15 19  2  0  0  0  0
 15 35  1  0  0  0  0
 16 18  1  0  0  0  0
 16 36  1  0  0  0  0
 17 19  1  0  0  0  0
 17 37  1  0  0  0  0
 18 38  1  0  0  0  0
 19 39  1  0  0  0  0
M  END
>  <$CLUSTER>
660

>  <INDEX>
436084

$$$$
MDPI 13055
  MOE2020           3D

 44 47  0  0  1  0  0  0  0  0999 V2000
   -0.3940    0.2430   -0.3980 C   0  0  0  0  0  0  0  0  0  0  0  0
   -1.5910   -0.4830   -0.9410 C   0  0  0  0  0  0  0  0  0  0  0  0
    0.1660    1.2020   -1.1600 C   0  0  0  0  0  0  0  0  0  0  0  0
   -2.0310   -0.0880   -2.1980 N   0  0  0  0  0  0  0  0  0  0  0  0
    0.2160   -0.1070    0.9060 C   0  0  0  0  0  0  0  0  0  0  0  0
   -0.3700    1.5510   -2.4560 C   0  0  0  0  0  0  0  0  0  0  0  0
   -1.4360    0.9010   -2.9320 C   0  0  0  0  0  0  0  0  0  0  0  0
    0.7290    0.7430    1.7390 N   0  0  0  0  0  0  0  0  0  0  0  0
    1.2330    0.0020    2.8380 O   0  0  0  0  0  0  0  0  0  0  0  0
    0.2690   -1.5220    1.3710 C   0  0  0  0  0  0  0  0  0  0  0  0
   -2.1520   -1.3660   -0.2970 O   0  0  0  0  0  0  0  0  0  0  0  0
    2.7430   -1.6440    1.9270 C   0  0  0  0  0  0  0  0  0  0  0  0
    3.4940   -2.6100    2.4060 C   0  0  0  0  0  0  0  0  0  0  0  0
    1.3330   -1.3690    2.4310 C   0  0  3  0  0  0  0  0  0  0  0  0
    1.2840    1.9370   -0.8290 O   0  0  0  0  0  0  0  0  0  0  0  0
   -3.2590   -0.8200   -2.7160 C   0  0  0  0  0  0  0  0  0  0  0  0
    4.8700   -2.8970    1.9010 C   0  0  0  0  0  0  0  0  0  0  0  0
    0.2650    2.5850   -3.2520 C   0  0  0  0  0  0  0  0  0  0  0  0
   -1.9720    1.2630   -4.2550 C   0  0  0  0  0  0  0  0  0  0  0  0
    5.8260   -3.3640    2.8160 C   0  0  0  0  0  0  0  0  0  0  0  0
    5.2110   -2.7830    0.5560 C   0  0  0  0  0  0  0  0  0  0  0  0
   -0.2390    2.9280   -4.5050 C   0  0  0  0  0  0  0  0  0  0  0  0
   -1.3570    2.2670   -5.0040 C   0  0  0  0  0  0  0  0  0  0  0  0
    6.5010   -3.0960    0.1260 C   0  0  0  0  0  0  0  0  0  0  0  0
    7.1170   -3.6770    2.3840 C   0  0  0  0  0  0  0  0  0  0  0  0
    7.4540   -3.5400    1.0400 C   0  0  0  0  0  0  0  0  0  0  0  0
    0.5750   -2.2040    0.5780 H   0  0  0  0  0  0  0  0  0  0  0  0
   -0.6820   -1.8530    1.7880 H   0  0  0  0  0  0  0  0  0  0  0  0
    3.1430   -1.0190    1.1430 H   0  0  0  0  0  0  0  0  0  0  0  0
    3.0980   -3.2240    3.2010 H   0  0  0  0  0  0  0  0  0  0  0  0
    1.1710   -2.0900    3.2320 H   0  0  0  0  0  0  0  0  0  0  0  0
    1.6720    1.7230    0.0220 H   0  0  0  0  0  0  0  0  0  0  0  0
   -3.5200   -0.4380   -3.7030 H   0  0  0  0  0  0  0  0  0  0  0  0
   -4.0930   -0.6600   -2.0320 H   0  0  0  0  0  0  0  0  0  0  0  0
   -3.0440   -1.8860   -2.7840 H   0  0  0  0  0  0  0  0  0  0  0  0
    1.1370    3.0940   -2.8690 H   0  0  0  0  0  0  0  0  0  0  0  0
   -2.8400    0.7520   -4.6450 H   0  0  0  0  0  0  0  0  0  0  0  0
    5.5630   -3.4820    3.8570 H   0  0  0  0  0  0  0  0  0  0  0  0
    4.4730   -2.4500   -0.1590 H   0  0  0  0  0  0  0  0  0  0  0  0
    0.2360    3.7040   -5.0870 H   0  0  0  0  0  0  0  0  0  0  0  0
   -1.7500    2.5320   -5.9740 H   0  0  0  0  0  0  0  0  0  0  0  0
    6.7610   -2.9940   -0.9170 H   0  0  0  0  0  0  0  0  0  0  0  0
    7.8540   -4.0250    3.0930 H   0  0  0  0  0  0  0  0  0  0  0  0
    8.4530   -3.7780    0.7060 H   0  0  0  0  0  0  0  0  0  0  0  0
  1  2  1  0  0  0  0
  1  3  2  0  0  0  0
  1  5  1  0  0  0  0
  2  4  1  0  0  0  0
  2 11  2  0  0  0  0
  3  6  1  0  0  0  0
  3 15  1  0  0  0  0
  4  7  1  0  0  0  0
  4 16  1  0  0  0  0
  5  8  2  0  0  0  0
  5 10  1  0  0  0  0
  6  7  1  0  0  0  0
  6 18  2  0  0  0  0
  7 19  2  0  0  0  0
  8  9  1  0  0  0  0
  9 14  1  0  0  0  0
 10 14  1  0  0  0  0
 10 27  1  0  0  0  0
 10 28  1  0  0  0  0
 12 13  2  0  0  0  0
 12 14  1  0  0  0  0
 12 29  1  0  0  0  0
 13 17  1  0  0  0  0
 13 30  1  0  0  0  0
 14 31  1  0  0  0  0
 15 32  1  0  0  0  0
 16 33  1  0  0  0  0
 16 34  1  0  0  0  0
 16 35  1  0  0  0  0
 17 20  1  0  0  0  0
 17 21  2  0  0  0  0
 18 22  1  0  0  0  0
 18 36  1  0  0  0  0
 19 23  1  0  0  0  0
 19 37  1  0  0  0  0
 20 25  2  0  0  0  0
 20 38  1  0  0  0  0
 21 24  1  0  0  0  0
 21 39  1  0  0  0  0
 22 23  2  0  0  0  0
 22 40  1  0  0  0  0
 23 41  1  0  0  0  0
 24 26  2  0  0  0  0
 24 42  1  0  0  0  0
 25 26  1  0  0  0  0
 25 43  1  0  0  0  0
 26 44  1  0  0  0  0
M  END
>  <$CLUSTER>
661

>  <INDEX>
436231

$$$$
InterBioScreen STOCK4S-52524
  MOE2020           3D

 62 65  0  0  1  0  0  0  0  0999 V2000
    0.8080    4.1080    4.7660 C   0  0  0  0  0  0  0  0  0  0  0  0
    0.0770    2.9840    4.7640 C   0  0  0  0  0  0  0  0  0  0  0  0
    1.5800    1.9680    3.1110 C   0  0  0  0  0  0  0  0  0  0  0  0
    0.3830    5.1790    5.6210 N   0  0  0  0  0  0  0  0  0  0  0  0
   -1.4090    3.8870    6.3860 N   0  0  0  0  0  0  0  0  0  0  0  0
    1.9210    4.2410    3.9680 N   0  0  0  0  0  0  0  0  0  0  0  0
   -0.6630    5.0160    6.3570 C   0  0  0  0  0  0  0  0  0  0  0  0
    2.3420    3.2360    3.1200 C   0  0  0  0  0  0  0  0  0  0  0  0
   -1.1050    2.8090    5.6200 C   0  0  0  0  0  0  0  0  0  0  0  0
    0.4870    1.8800    3.9070 C   0  0  0  0  0  0  0  0  0  0  0  0
    1.9230    0.7490    2.2940 C   0  0  0  0  0  0  0  0  0  0  0  0
    0.9250    0.2280    1.5260 N   0  0  0  0  0  0  0  0  0  0  0  0
   -1.0230    6.1910    7.2210 C   0  0  0  0  0  0  0  0  0  0  0  0
   -2.5330    3.8500    7.2520 C   0  0  0  0  0  0  0  0  0  0  0  0
    3.3740    3.4010    2.3520 N   0  0  0  0  0  0  0  0  0  0  0  0
    1.1420   -0.9570    0.6890 C   0  0  0  0  0  0  0  0  0  0  0  0
   -0.4510    0.7190    1.4050 C   0  0  0  0  0  0  0  0  0  0  0  0
   -1.7700    1.7750    5.6320 O   0  0  0  0  0  0  0  0  0  0  0  0
    3.0660    0.2860    2.3510 O   0  0  0  0  0  0  0  0  0  0  0  0
   -2.8780    4.8820    8.0320 C   0  0  0  0  0  0  0  0  0  0  0  0
   -2.0940    6.0890    8.0120 C   0  0  0  0  0  0  0  0  0  0  0  0
    2.6860    5.5360    3.9870 C   0  0  0  0  0  0  0  0  0  0  0  0
    0.8720   -0.6560   -0.7920 C   0  0  3  0  0  0  0  0  0  0  0  0
   -0.7900    1.0920   -0.0450 C   0  0  3  0  0  0  0  0  0  0  0  0
   -0.5450   -0.1000   -0.9790 C   0  0  0  0  0  0  0  0  0  0  0  0
   -0.1620    7.3860    7.1370 C   0  0  0  0  0  0  0  0  0  0  0  0
    1.0810   -1.9060   -1.6460 C   0  0  0  0  0  0  0  0  0  0  0  0
   -2.2330    1.5810   -0.1570 C   0  0  0  0  0  0  0  0  0  0  0  0
    2.1350    6.5100    2.9570 C   0  0  0  0  0  0  0  0  0  0  0  0
    2.9150    7.8130    2.9690 C   0  0  0  0  0  0  0  0  0  0  0  0
    2.3750    8.7960    1.9440 C   0  0  0  0  0  0  0  0  0  0  0  0
   -0.0940    0.9700    3.9060 H   0  0  0  0  0  0  0  0  0  0  0  0
   -3.1340    2.9530    7.2830 H   0  0  0  0  0  0  0  0  0  0  0  0
    3.8820    4.2740    2.3690 H   0  0  0  0  0  0  0  0  0  0  0  0
    0.4710   -1.7500    1.0170 H   0  0  0  0  0  0  0  0  0  0  0  0
    2.1750   -1.2860    0.8010 H   0  0  0  0  0  0  0  0  0  0  0  0
   -0.5690    1.6010    2.0340 H   0  0  0  0  0  0  0  0  0  0  0  0
   -1.1360   -0.0600    1.7400 H   0  0  0  0  0  0  0  0  0  0  0  0
   -3.7430    4.8090    8.6750 H   0  0  0  0  0  0  0  0  0  0  0  0
   -2.3750    6.9200    8.6430 H   0  0  0  0  0  0  0  0  0  0  0  0
    3.7330    5.3350    3.7620 H   0  0  0  0  0  0  0  0  0  0  0  0
    2.6060    5.9830    4.9780 H   0  0  0  0  0  0  0  0  0  0  0  0
    1.5830    0.1020   -1.1220 H   0  0  0  0  0  0  0  0  0  0  0  0
   -0.1330    1.9070   -0.3500 H   0  0  0  0  0  0  0  0  0  0  0  0
   -1.2690   -0.8840   -0.7560 H   0  0  0  0  0  0  0  0  0  0  0  0
   -0.6680    0.2240   -2.0120 H   0  0  0  0  0  0  0  0  0  0  0  0
    0.6390    7.2070    6.4190 H   0  0  0  0  0  0  0  0  0  0  0  0
    0.2680    7.5940    8.1170 H   0  0  0  0  0  0  0  0  0  0  0  0
   -0.7570    8.2400    6.8130 H   0  0  0  0  0  0  0  0  0  0  0  0
    0.3800   -2.6800   -1.3340 H   0  0  0  0  0  0  0  0  0  0  0  0
    2.1020   -2.2670   -1.5180 H   0  0  0  0  0  0  0  0  0  0  0  0
    0.9110   -1.6620   -2.6950 H   0  0  0  0  0  0  0  0  0  0  0  0
   -2.9120    0.7830    0.1440 H   0  0  0  0  0  0  0  0  0  0  0  0
   -2.4410    1.8660   -1.1880 H   0  0  0  0  0  0  0  0  0  0  0  0
   -2.3760    2.4440    0.4940 H   0  0  0  0  0  0  0  0  0  0  0  0
    1.0900    6.7180    3.1860 H   0  0  0  0  0  0  0  0  0  0  0  0
    2.2070    6.0600    1.9670 H   0  0  0  0  0  0  0  0  0  0  0  0
    3.9600    7.6020    2.7410 H   0  0  0  0  0  0  0  0  0  0  0  0
    2.8420    8.2600    3.9610 H   0  0  0  0  0  0  0  0  0  0  0  0
    2.4440    8.3570    0.9490 H   0  0  0  0  0  0  0  0  0  0  0  0
    2.9610    9.7140    1.9770 H   0  0  0  0  0  0  0  0  0  0  0  0
    1.3330    9.0210    2.1710 H   0  0  0  0  0  0  0  0  0  0  0  0
  1  2  2  0  0  0  0
  1  4  1  0  0  0  0
  1  6  1  0  0  0  0
  2  9  1  0  0  0  0
  2 10  1  0  0  0  0
  3  8  1  0  0  0  0
  3 10  2  0  0  0  0
  3 11  1  0  0  0  0
  4  7  2  0  0  0  0
  5  7  1  0  0  0  0
  5  9  1  0  0  0  0
  5 14  1  0  0  0  0
  6  8  1  0  0  0  0
  6 22  1  0  0  0  0
  7 13  1  0  0  0  0
  8 15  2  0  0  0  0
  9 18  2  0  0  0  0
 10 32  1  0  0  0  0
 11 12  1  0  0  0  0
 11 19  2  0  0  0  0
 12 16  1  0  0  0  0
 12 17  1  0  0  0  0
 13 21  2  0  0  0  0
 13 26  1  0  0  0  0
 14 20  2  0  0  0  0
 14 33  1  0  0  0  0
 15 34  1  0  0  0  0
 16 23  1  0  0  0  0
 16 35  1  0  0  0  0
 16 36  1  0  0  0  0
 17 24  1  0  0  0  0
 17 37  1  0  0  0  0
 17 38  1  0  0  0  0
 20 21  1  0  0  0  0
 20 39  1  0  0  0  0
 21 40  1  0  0  0  0
 22 29  1  0  0  0  0
 22 41  1  0  0  0  0
 22 42  1  0  0  0  0
 23 25  1  0  0  0  0
 23 27  1  0  0  0  0
 23 43  1  0  0  0  0
 24 25  1  0  0  0  0
 24 28  1  0  0  0  0
 24 44  1  0  0  0  0
 25 45  1  0  0  0  0
 25 46  1  0  0  0  0
 26 47  1  0  0  0  0
 26 48  1  0  0  0  0
 26 49  1  0  0  0  0
 27 50  1  0  0  0  0
 27 51  1  0  0  0  0
 27 52  1  0  0  0  0
 28 53  1  0  0  0  0
 28 54  1  0  0  0  0
 28 55  1  0  0  0  0
 29 30  1  0  0  0  0
 29 56  1  0  0  0  0
 29 57  1  0  0  0  0
 30 31  1  0  0  0  0
 30 58  1  0  0  0  0
 30 59  1  0  0  0  0
 31 60  1  0  0  0  0
 31 61  1  0  0  0  0
 31 62  1  0  0  0  0
M  END
>  <$CLUSTER>
662

>  <INDEX>
356790

$$$$
Tripos 1502-11425
  MOE2020           3D

 50 52  0  0  1  0  0  0  0  0999 V2000
    0.1320   -0.0460   -0.2160 C   0  0  0  0  0  0  0  0  0  0  0  0
    2.4320    0.7340   -0.7350 N   0  0  0  0  0  0  0  0  0  0  0  0
    1.2870    0.7060    0.0500 C   0  0  0  0  0  0  0  0  0  0  0  0
    0.1100   -1.0250   -1.2770 N   0  3  0  0  0  0  0  0  0  0  0  0
   -0.9980    0.0380    0.6170 C   0  0  0  0  0  0  0  0  0  0  0  0
    1.2840    1.4850    1.1620 N   0  0  0  0  0  0  0  0  0  0  0  0
   -0.9680    0.8500    1.6960 N   0  0  0  0  0  0  0  0  0  0  0  0
    4.4050    2.1020   -2.2780 O   0  0  0  0  0  0  0  0  0  0  0  0
    2.4540    0.5050   -2.1700 C   0  0  0  0  0  0  0  0  0  0  0  0
    3.6900    1.0800   -0.0840 C   0  0  0  0  0  0  0  0  0  0  0  0
   -2.1400   -0.7190    0.3660 N   0  0  0  0  0  0  0  0  0  0  0  0
    0.7420   -2.0720   -1.0860 O   0  5  0  0  0  0  0  0  0  0  0  0
    0.1710    1.5210    1.9130 C   0  0  0  0  0  0  0  0  0  0  0  0
   -0.5610   -0.7520   -2.2810 O   0  0  0  0  0  0  0  0  0  0  0  0
    4.3090    2.3010   -0.8470 C   0  0  3  0  0  0  0  0  0  0  0  0
    3.1340    1.7330   -2.8690 C   0  0  3  0  0  0  0  0  0  0  0  0
   -3.2700   -0.6870    1.2730 C   0  0  0  0  0  0  0  0  0  0  0  0
   -4.3630   -1.6170    0.7710 C   0  0  0  0  0  0  0  0  0  0  0  0
   -6.4210   -3.3190   -0.1200 C   0  0  0  0  0  0  0  0  0  0  0  0
   -4.5260   -2.9010    1.3250 C   0  0  0  0  0  0  0  0  0  0  0  0
   -5.2540   -1.2040   -0.2350 C   0  0  0  0  0  0  0  0  0  0  0  0
   -6.2740   -2.0490   -0.6790 C   0  0  0  0  0  0  0  0  0  0  0  0
   -5.5460   -3.7460    0.8800 C   0  0  0  0  0  0  0  0  0  0  0  0
   -7.4590   -4.0550   -0.6380 O   0  0  0  0  0  0  0  0  0  0  0  0
    5.7120    2.5760   -0.3230 C   0  0  0  0  0  0  0  0  0  0  0  0
    2.1890    2.9350   -2.9420 C   0  0  0  0  0  0  0  0  0  0  0  0
   -7.6530   -5.3600   -0.1030 C   0  0  0  0  0  0  0  0  0  0  0  0
    1.4340    0.3920   -2.5380 H   0  0  0  0  0  0  0  0  0  0  0  0
    3.0210   -0.4000   -2.3880 H   0  0  0  0  0  0  0  0  0  0  0  0
    4.3740    0.2320   -0.1260 H   0  0  0  0  0  0  0  0  0  0  0  0
    3.5070    1.3480    0.9570 H   0  0  0  0  0  0  0  0  0  0  0  0
   -2.1810   -1.2990   -0.4600 H   0  0  0  0  0  0  0  0  0  0  0  0
    0.1970    2.1590    2.7840 H   0  0  0  0  0  0  0  0  0  0  0  0
    3.6350    3.1380   -0.6680 H   0  0  0  0  0  0  0  0  0  0  0  0
    3.3540    1.4090   -3.8860 H   0  0  0  0  0  0  0  0  0  0  0  0
   -3.6590    0.3300    1.3300 H   0  0  0  0  0  0  0  0  0  0  0  0
   -2.9480   -1.0090    2.2630 H   0  0  0  0  0  0  0  0  0  0  0  0
   -3.8550   -3.2360    2.1020 H   0  0  0  0  0  0  0  0  0  0  0  0
   -5.1490   -0.2210   -0.6700 H   0  0  0  0  0  0  0  0  0  0  0  0
   -6.9490   -1.7190   -1.4550 H   0  0  0  0  0  0  0  0  0  0  0  0
   -5.6570   -4.7300    1.3100 H   0  0  0  0  0  0  0  0  0  0  0  0
    6.3500    1.7150   -0.5230 H   0  0  0  0  0  0  0  0  0  0  0  0
    5.6700    2.7550    0.7510 H   0  0  0  0  0  0  0  0  0  0  0  0
    6.1210    3.4550   -0.8220 H   0  0  0  0  0  0  0  0  0  0  0  0
    1.9560    3.2760   -1.9330 H   0  0  0  0  0  0  0  0  0  0  0  0
    1.2690    2.6440   -3.4490 H   0  0  0  0  0  0  0  0  0  0  0  0
    2.6690    3.7420   -3.4960 H   0  0  0  0  0  0  0  0  0  0  0  0
   -8.5020   -5.8330   -0.5970 H   0  0  0  0  0  0  0  0  0  0  0  0
   -7.8480   -5.2890    0.9670 H   0  0  0  0  0  0  0  0  0  0  0  0
   -6.7570   -5.9580   -0.2700 H   0  0  0  0  0  0  0  0  0  0  0  0
  1  3  2  0  0  0  0
  1  4  1  0  0  0  0
  1  5  1  0  0  0  0
  2  3  1  0  0  0  0
  2  9  1  0  0  0  0
  2 10  1  0  0  0  0
  3  6  1  0  0  0  0
  4 12  1  0  0  0  0
  4 14  2  0  0  0  0
  5  7  2  0  0  0  0
  5 11  1  0  0  0  0
  6 13  2  0  0  0  0
  7 13  1  0  0  0  0
  8 15  1  0  0  0  0
  8 16  1  0  0  0  0
  9 16  1  0  0  0  0
  9 28  1  0  0  0  0
  9 29  1  0  0  0  0
 10 15  1  0  0  0  0
 10 30  1  0  0  0  0
 10 31  1  0  0  0  0
 11 17  1  0  0  0  0
 11 32  1  0  0  0  0
 13 33  1  0  0  0  0
 15 25  1  0  0  0  0
 15 34  1  0  0  0  0
 16 26  1  0  0  0  0
 16 35  1  0  0  0  0
 17 18  1  0  0  0  0
 17 36  1  0  0  0  0
 17 37  1  0  0  0  0
 18 20  1  0  0  0  0
 18 21  2  0  0  0  0
 19 22  2  0  0  0  0
 19 23  1  0  0  0  0
 19 24  1  0  0  0  0
 20 23  2  0  0  0  0
 20 38  1  0  0  0  0
 21 22  1  0  0  0  0
 21 39  1  0  0  0  0
 22 40  1  0  0  0  0
 23 41  1  0  0  0  0
 24 27  1  0  0  0  0
 25 42  1  0  0  0  0
 25 43  1  0  0  0  0
 25 44  1  0  0  0  0
 26 45  1  0  0  0  0
 26 46  1  0  0  0  0
 26 47  1  0  0  0  0
 27 48  1  0  0  0  0
 27 49  1  0  0  0  0
 27 50  1  0  0  0  0
M  CHG  1   4   1
M  CHG  1  12  -1
M  END
>  <$CLUSTER>
663

>  <INDEX>
436929

$$$$
Tripos 1502-14745
  MOE2020           3D

 54 57  0  0  1  0  0  0  0  0999 V2000
   -0.0210   -0.0650   -0.1360 C   0  0  0  0  0  0  0  0  0  0  0  0
   -2.4660    0.2410    0.2190 N   0  0  0  0  0  0  0  0  0  0  0  0
   -1.1410    0.3340    0.6220 C   0  0  0  0  0  0  0  0  0  0  0  0
   -0.2220   -0.6770   -1.4260 N   0  3  0  0  0  0  0  0  0  0  0  0
    1.2910    0.1250    0.3430 C   0  0  0  0  0  0  0  0  0  0  0  0
    2.4540   -0.2790   -0.3000 N   0  0  0  0  0  0  0  0  0  0  0  0
    5.0470   -1.6060   -0.4250 N   0  0  0  0  0  0  0  0  0  0  0  0
   -0.9210    0.8720    1.8470 N   0  0  0  0  0  0  0  0  0  0  0  0
    1.4490    0.7380    1.5420 N   0  0  0  0  0  0  0  0  0  0  0  0
    6.2350   -1.9200   -0.9280 C   0  0  0  0  0  0  0  0  0  0  0  0
   -5.0570    1.3670   -0.1880 O   0  0  0  0  0  0  0  0  0  0  0  0
   -3.4720    0.0340    1.2540 C   0  0  0  0  0  0  0  0  0  0  0  0
   -2.9280    0.4110   -1.1480 C   0  0  0  0  0  0  0  0  0  0  0  0
    0.3480    1.0600    2.2320 C   0  0  0  0  0  0  0  0  0  0  0  0
   -0.6250   -1.8480   -1.4350 O   0  5  0  0  0  0  0  0  0  0  0  0
    0.0240    0.0160   -2.4220 O   0  0  0  0  0  0  0  0  0  0  0  0
    7.2840   -1.0930   -0.6580 N   0  0  0  0  0  0  0  0  0  0  0  0
    2.5770   -1.4810   -1.1060 C   0  0  0  0  0  0  0  0  0  0  0  0
    3.6540    0.5210   -0.0870 C   0  0  0  0  0  0  0  0  0  0  0  0
    4.8150   -0.4090    0.4060 C   0  0  0  0  0  0  0  0  0  0  0  0
    3.7770   -2.3410   -0.5780 C   0  0  0  0  0  0  0  0  0  0  0  0
   -4.0010    1.5540   -1.1600 C   0  0  3  0  0  0  0  0  0  0  0  0
   -4.5420    1.1760    1.1540 C   0  0  3  0  0  0  0  0  0  0  0  0
    6.4240   -3.0660   -1.7140 C   0  0  0  0  0  0  0  0  0  0  0  0
    8.5040   -1.4050   -1.1680 C   0  0  0  0  0  0  0  0  0  0  0  0
   -4.0210    2.4910    1.7380 C   0  0  0  0  0  0  0  0  0  0  0  0
   -4.6490    1.6360   -2.5360 C   0  0  0  0  0  0  0  0  0  0  0  0
    7.6880   -3.3650   -2.2260 C   0  0  0  0  0  0  0  0  0  0  0  0
    8.7540   -2.5200   -1.9500 C   0  0  0  0  0  0  0  0  0  0  0  0
   -2.9990    0.0600    2.2360 H   0  0  0  0  0  0  0  0  0  0  0  0
   -3.9540   -0.9330    1.1090 H   0  0  0  0  0  0  0  0  0  0  0  0
   -3.3730   -0.5170   -1.5060 H   0  0  0  0  0  0  0  0  0  0  0  0
   -2.0900    0.6840   -1.7900 H   0  0  0  0  0  0  0  0  0  0  0  0
    0.4980    1.5180    3.1980 H   0  0  0  0  0  0  0  0  0  0  0  0
    2.7570   -1.2050   -2.1450 H   0  0  0  0  0  0  0  0  0  0  0  0
    1.6560   -2.0610   -1.0380 H   0  0  0  0  0  0  0  0  0  0  0  0
    3.4540    1.2840    0.6650 H   0  0  0  0  0  0  0  0  0  0  0  0
    3.9430    1.0000   -1.0220 H   0  0  0  0  0  0  0  0  0  0  0  0
    5.7340    0.1760    0.4210 H   0  0  0  0  0  0  0  0  0  0  0  0
    4.5780   -0.7400    1.4170 H   0  0  0  0  0  0  0  0  0  0  0  0
    3.5010   -2.7460    0.3950 H   0  0  0  0  0  0  0  0  0  0  0  0
    3.9420   -3.1590   -1.2790 H   0  0  0  0  0  0  0  0  0  0  0  0
   -3.4660    2.4690   -0.9050 H   0  0  0  0  0  0  0  0  0  0  0  0
   -5.3850    0.8440    1.7600 H   0  0  0  0  0  0  0  0  0  0  0  0
    5.5900   -3.7190   -1.9240 H   0  0  0  0  0  0  0  0  0  0  0  0
    9.3290   -0.7430   -0.9500 H   0  0  0  0  0  0  0  0  0  0  0  0
   -3.1760    2.8420    1.1460 H   0  0  0  0  0  0  0  0  0  0  0  0
   -3.7010    2.3300    2.7680 H   0  0  0  0  0  0  0  0  0  0  0  0
   -4.8150    3.2380    1.7160 H   0  0  0  0  0  0  0  0  0  0  0  0
   -5.1710    0.7030   -2.7480 H   0  0  0  0  0  0  0  0  0  0  0  0
   -3.8800    1.8020   -3.2900 H   0  0  0  0  0  0  0  0  0  0  0  0
   -5.3600    2.4620   -2.5540 H   0  0  0  0  0  0  0  0  0  0  0  0
    7.8350   -4.2470   -2.8320 H   0  0  0  0  0  0  0  0  0  0  0  0
    9.7430   -2.7250   -2.3320 H   0  0  0  0  0  0  0  0  0  0  0  0
  1  3  2  0  0  0  0
  1  4  1  0  0  0  0
  1  5  1  0  0  0  0
  2  3  1  0  0  0  0
  2 12  1  0  0  0  0
  2 13  1  0  0  0  0
  3  8  1  0  0  0  0
  4 15  1  0  0  0  0
  4 16  2  0  0  0  0
  5  6  1  0  0  0  0
  5  9  2  0  0  0  0
  6 18  1  0  0  0  0
  6 19  1  0  0  0  0
  7 10  1  0  0  0  0
  7 20  1  0  0  0  0
  7 21  1  0  0  0  0
  8 14  2  0  0  0  0
  9 14  1  0  0  0  0
 10 17  2  0  0  0  0
 10 24  1  0  0  0  0
 11 22  1  0  0  0  0
 11 23  1  0  0  0  0
 12 23  1  0  0  0  0
 12 30  1  0  0  0  0
 12 31  1  0  0  0  0
 13 22  1  0  0  0  0
 13 32  1  0  0  0  0
 13 33  1  0  0  0  0
 14 34  1  0  0  0  0
 17 25  1  0  0  0  0
 18 21  1  0  0  0  0
 18 35  1  0  0  0  0
 18 36  1  0  0  0  0
 19 20  1  0  0  0  0
 19 37  1  0  0  0  0
 19 38  1  0  0  0  0
 20 39  1  0  0  0  0
 20 40  1  0  0  0  0
 21 41  1  0  0  0  0
 21 42  1  0  0  0  0
 22 27  1  0  0  0  0
 22 43  1  0  0  0  0
 23 26  1  0  0  0  0
 23 44  1  0  0  0  0
 24 28  2  0  0  0  0
 24 45  1  0  0  0  0
 25 29  2  0  0  0  0
 25 46  1  0  0  0  0
 26 47  1  0  0  0  0
 26 48  1  0  0  0  0
 26 49  1  0  0  0  0
 27 50  1  0  0  0  0
 27 51  1  0  0  0  0
 27 52  1  0  0  0  0
 28 29  1  0  0  0  0
 28 53  1  0  0  0  0
 29 54  1  0  0  0  0
M  CHG  1   4   1
M  CHG  1  15  -1
M  END
>  <$CLUSTER>
664

>  <INDEX>
437158

$$$$
Tripos 1502-15066
  MOE2020           3D

 56 59  0  0  0  0  0  0  0  0999 V2000
    0.3410    0.1010    0.0890 C   0  0  0  0  0  0  0  0  0  0  0  0
    1.2500    1.0580   -0.4940 N   0  3  0  0  0  0  0  0  0  0  0  0
    0.7850   -0.7050    1.1570 C   0  0  0  0  0  0  0  0  0  0  0  0
   -0.9700   -0.0080   -0.4170 C   0  0  0  0  0  0  0  0  0  0  0  0
    2.0360   -0.6380    1.7580 N   0  0  0  0  0  0  0  0  0  0  0  0
    4.9250   -0.8420    2.0880 N   0  0  0  0  0  0  0  0  0  0  0  0
   -0.0760   -1.6210    1.6650 N   0  0  0  0  0  0  0  0  0  0  0  0
   -1.8080   -0.8880    0.1860 N   0  0  0  0  0  0  0  0  0  0  0  0
    6.0780   -0.9000    2.7430 C   0  0  0  0  0  0  0  0  0  0  0  0
   -1.4860    0.6970   -1.4990 N   0  0  0  0  0  0  0  0  0  0  0  0
   -1.3190   -1.6520    1.1710 C   0  0  0  0  0  0  0  0  0  0  0  0
    2.1400    0.6110   -1.2300 O   0  5  0  0  0  0  0  0  0  0  0  0
    1.0680    2.2500   -0.2110 O   0  0  0  0  0  0  0  0  0  0  0  0
    6.4900   -2.1140    3.2070 N   0  0  0  0  0  0  0  0  0  0  0  0
    2.7970    0.5840    1.9470 C   0  0  0  0  0  0  0  0  0  0  0  0
    2.5870   -1.8730    2.3040 C   0  0  0  0  0  0  0  0  0  0  0  0
    4.0760   -2.0230    1.8420 C   0  0  0  0  0  0  0  0  0  0  0  0
    4.2800    0.3480    1.4980 C   0  0  0  0  0  0  0  0  0  0  0  0
   -2.9170    1.0180   -1.5060 C   0  0  0  0  0  0  0  0  0  0  0  0
   -3.7210   -0.0330   -2.2600 C   0  0  0  0  0  0  0  0  0  0  0  0
   -5.1980    0.2980   -2.2810 C   0  0  0  0  0  0  0  0  0  0  0  0
    6.8630    0.2410    2.9600 C   0  0  0  0  0  0  0  0  0  0  0  0
    7.6680   -2.1870    3.8790 C   0  0  0  0  0  0  0  0  0  0  0  0
   -0.7060    1.0980   -2.6600 C   0  0  0  0  0  0  0  0  0  0  0  0
   -5.7350    1.0840   -3.3080 C   0  0  0  0  0  0  0  0  0  0  0  0
   -6.0410   -0.1530   -1.2580 C   0  0  0  0  0  0  0  0  0  0  0  0
    8.0710    0.1400    3.6540 C   0  0  0  0  0  0  0  0  0  0  0  0
    8.4870   -1.0970    4.1260 C   0  0  0  0  0  0  0  0  0  0  0  0
   -7.3990    0.1650   -1.2710 C   0  0  0  0  0  0  0  0  0  0  0  0
   -7.0940    1.4020   -3.3180 C   0  0  0  0  0  0  0  0  0  0  0  0
   -7.9250    0.9410   -2.3000 C   0  0  0  0  0  0  0  0  0  0  0  0
   -1.9980   -2.3670    1.6120 H   0  0  0  0  0  0  0  0  0  0  0  0
    2.7760    0.8660    3.0000 H   0  0  0  0  0  0  0  0  0  0  0  0
    2.3580    1.3820    1.3480 H   0  0  0  0  0  0  0  0  0  0  0  0
    2.0060   -2.7220    1.9430 H   0  0  0  0  0  0  0  0  0  0  0  0
    2.5450   -1.8410    3.3930 H   0  0  0  0  0  0  0  0  0  0  0  0
    4.5120   -2.8700    2.3730 H   0  0  0  0  0  0  0  0  0  0  0  0
    4.0790   -2.2250    0.7710 H   0  0  0  0  0  0  0  0  0  0  0  0
    4.2920    0.2370    0.4140 H   0  0  0  0  0  0  0  0  0  0  0  0
    4.8630    1.2250    1.7800 H   0  0  0  0  0  0  0  0  0  0  0  0
   -3.0610    1.9860   -1.9860 H   0  0  0  0  0  0  0  0  0  0  0  0
   -3.2740    1.0670   -0.4770 H   0  0  0  0  0  0  0  0  0  0  0  0
   -3.5830   -0.9990   -1.7740 H   0  0  0  0  0  0  0  0  0  0  0  0
   -3.3570   -0.0870   -3.2860 H   0  0  0  0  0  0  0  0  0  0  0  0
    6.5330    1.2000    2.5900 H   0  0  0  0  0  0  0  0  0  0  0  0
    7.9860   -3.1530    4.2430 H   0  0  0  0  0  0  0  0  0  0  0  0
    0.3330    0.7990   -2.5210 H   0  0  0  0  0  0  0  0  0  0  0  0
   -0.7600    2.1800   -2.7780 H   0  0  0  0  0  0  0  0  0  0  0  0
   -1.1070    0.6150   -3.5510 H   0  0  0  0  0  0  0  0  0  0  0  0
   -5.0930    1.4470   -4.0980 H   0  0  0  0  0  0  0  0  0  0  0  0
   -5.6370   -0.7510   -0.4540 H   0  0  0  0  0  0  0  0  0  0  0  0
    8.6770    1.0180    3.8220 H   0  0  0  0  0  0  0  0  0  0  0  0
    9.4160   -1.2060    4.6660 H   0  0  0  0  0  0  0  0  0  0  0  0
   -8.0440   -0.1920   -0.4810 H   0  0  0  0  0  0  0  0  0  0  0  0
   -7.5010    2.0060   -4.1150 H   0  0  0  0  0  0  0  0  0  0  0  0
   -8.9770    1.1850   -2.3090 H   0  0  0  0  0  0  0  0  0  0  0  0
  1  2  1  0  0  0  0
  1  3  2  0  0  0  0
  1  4  1  0  0  0  0
  2 12  1  0  0  0  0
  2 13  2  0  0  0  0
  3  5  1  0  0  0  0
  3  7  1  0  0  0  0
  4  8  2  0  0  0  0
  4 10  1  0  0  0  0
  5 15  1  0  0  0  0
  5 16  1  0  0  0  0
  6  9  1  0  0  0  0
  6 17  1  0  0  0  0
  6 18  1  0  0  0  0
  7 11  2  0  0  0  0
  8 11  1  0  0  0  0
  9 14  2  0  0  0  0
  9 22  1  0  0  0  0
 10 19  1  0  0  0  0
 10 24  1  0  0  0  0
 11 32  1  0  0  0  0
 14 23  1  0  0  0  0
 15 18  1  0  0  0  0
 15 33  1  0  0  0  0
 15 34  1  0  0  0  0
 16 17  1  0  0  0  0
 16 35  1  0  0  0  0
 16 36  1  0  0  0  0
 17 37  1  0  0  0  0
 17 38  1  0  0  0  0
 18 39  1  0  0  0  0
 18 40  1  0  0  0  0
 19 20  1  0  0  0  0
 19 41  1  0  0  0  0
 19 42  1  0  0  0  0
 20 21  1  0  0  0  0
 20 43  1  0  0  0  0
 20 44  1  0  0  0  0
 21 25  1  0  0  0  0
 21 26  2  0  0  0  0
 22 27  2  0  0  0  0
 22 45  1  0  0  0  0
 23 28  2  0  0  0  0
 23 46  1  0  0  0  0
 24 47  1  0  0  0  0
 24 48  1  0  0  0  0
 24 49  1  0  0  0  0
 25 30  2  0  0  0  0
 25 50  1  0  0  0  0
 26 29  1  0  0  0  0
 26 51  1  0  0  0  0
 27 28  1  0  0  0  0
 27 52  1  0  0  0  0
 28 53  1  0  0  0  0
 29 31  2  0  0  0  0
 29 54  1  0  0  0  0
 30 31  1  0  0  0  0
 30 55  1  0  0  0  0
 31 56  1  0  0  0  0
M  CHG  1   2   1
M  CHG  1  12  -1
M  END
>  <$CLUSTER>
665

>  <INDEX>
437231

$$$$
Tripos 1503-01399
  MOE2020           3D

 51 53  0  0  1  0  0  0  0  0999 V2000
   -1.1340    0.4090   -2.6630 N   0  3  3  0  0  0  0  0  0  0  0  0
    1.5720    0.6660   -0.4180 C   0  0  0  0  0  0  0  0  0  0  0  0
   -0.6520   -0.4730   -0.3780 C   0  0  0  0  0  0  0  0  0  0  0  0
    0.3970    0.1730    0.2990 C   0  0  0  0  0  0  0  0  0  0  0  0
   -1.5270    5.5360  -10.7940 C   0  0  0  0  0  0  0  0  0  0  0  0
   -1.7770    6.6140  -11.2590 C   0  0  0  0  0  0  0  0  0  0  0  0
   -0.6420   -0.7390   -1.8590 C   0  0  0  0  0  0  0  0  0  0  0  0
   -2.6580    1.7200   -4.6780 O   0  0  0  0  0  0  0  0  0  0  0  0
    1.5400    1.2860   -1.4690 O   0  0  0  0  0  0  0  0  0  0  0  0
   -1.2470    1.5460   -4.8600 C   0  0  3  0  0  0  0  0  0  0  0  0
   -0.7800    0.2910   -4.1210 C   0  0  0  0  0  0  0  0  0  0  0  0
   -1.2260    4.2480  -10.2440 C   0  0  0  0  0  0  0  0  0  0  0  0
   -1.2610    2.6830   -6.9810 O   0  0  0  0  0  0  0  0  0  0  0  0
   -0.9830    1.4310   -6.3540 C   0  0  0  0  0  0  0  0  0  0  0  0
    2.6980    0.3060    0.2390 O   0  0  0  0  0  0  0  0  0  0  0  0
   -1.0810    2.7720   -8.3230 C   0  0  0  0  0  0  0  0  0  0  0  0
   -1.3710    4.0260   -8.8740 C   0  0  0  0  0  0  0  0  0  0  0  0
   -2.9890    1.9030   -3.3010 C   0  0  0  0  0  0  0  0  0  0  0  0
   -2.6120    0.6850   -2.4970 C   0  0  0  0  0  0  0  0  0  0  0  0
   -1.7750   -0.8790    0.3650 C   0  0  0  0  0  0  0  0  0  0  0  0
    0.3230    0.3940    1.6820 C   0  0  0  0  0  0  0  0  0  0  0  0
   -0.5010    1.9680  -10.5320 C   0  0  0  0  0  0  0  0  0  0  0  0
   -0.7910    3.2180  -11.0740 C   0  0  0  0  0  0  0  0  0  0  0  0
   -0.6440    1.7420   -9.1600 C   0  0  0  0  0  0  0  0  0  0  0  0
    3.9440    0.7180   -0.3520 C   0  0  0  0  0  0  0  0  0  0  0  0
   -1.8440   -0.6610    1.7420 C   0  0  0  0  0  0  0  0  0  0  0  0
   -0.7950   -0.0270    2.4000 C   0  0  0  0  0  0  0  0  0  0  0  0
   -0.6440    1.2070   -2.2840 H   0  0  0  0  0  0  0  0  0  0  0  0
   -1.9990    7.5700  -11.6720 H   0  0  0  0  0  0  0  0  0  0  0  0
    0.3800   -0.9630   -2.1640 H   0  0  0  0  0  0  0  0  0  0  0  0
   -1.2780   -1.6010   -2.0600 H   0  0  0  0  0  0  0  0  0  0  0  0
   -0.6940    2.3930   -4.4540 H   0  0  0  0  0  0  0  0  0  0  0  0
   -1.2710   -0.5850   -4.5450 H   0  0  0  0  0  0  0  0  0  0  0  0
    0.3000    0.1880   -4.2260 H   0  0  0  0  0  0  0  0  0  0  0  0
   -1.6260    0.6600   -6.7790 H   0  0  0  0  0  0  0  0  0  0  0  0
    0.0610    1.1650   -6.5200 H   0  0  0  0  0  0  0  0  0  0  0  0
   -1.7090    4.8270   -8.2340 H   0  0  0  0  0  0  0  0  0  0  0  0
   -4.0620    2.0740   -3.2100 H   0  0  0  0  0  0  0  0  0  0  0  0
   -2.4490    2.7680   -2.9150 H   0  0  0  0  0  0  0  0  0  0  0  0
   -2.8330    0.8620   -1.4440 H   0  0  0  0  0  0  0  0  0  0  0  0
   -3.1840   -0.1740   -2.8490 H   0  0  0  0  0  0  0  0  0  0  0  0
   -2.5970   -1.3670   -0.1380 H   0  0  0  0  0  0  0  0  0  0  0  0
    1.1350    0.8920    2.1920 H   0  0  0  0  0  0  0  0  0  0  0  0
   -0.1640    1.1690  -11.1750 H   0  0  0  0  0  0  0  0  0  0  0  0
   -0.6790    3.3880  -12.1350 H   0  0  0  0  0  0  0  0  0  0  0  0
   -0.4170    0.7710   -8.7470 H   0  0  0  0  0  0  0  0  0  0  0  0
    4.7720    0.3700    0.2660 H   0  0  0  0  0  0  0  0  0  0  0  0
    3.9720    1.8060   -0.4190 H   0  0  0  0  0  0  0  0  0  0  0  0
    4.0310    0.2900   -1.3510 H   0  0  0  0  0  0  0  0  0  0  0  0
   -2.7120   -0.9850    2.2970 H   0  0  0  0  0  0  0  0  0  0  0  0
   -0.8470    0.1390    3.4660 H   0  0  0  0  0  0  0  0  0  0  0  0
  1  7  1  0  0  0  0
  1 11  1  0  0  0  0
  1 19  1  0  0  0  0
  1 28  1  0  0  0  0
  2  4  1  0  0  0  0
  2  9  2  0  0  0  0
  2 15  1  0  0  0  0
  3  4  2  0  0  0  0
  3  7  1  0  0  0  0
  3 20  1  0  0  0  0
  4 21  1  0  0  0  0
  5  6  3  0  0  0  0
  5 12  1  0  0  0  0
  6 29  1  0  0  0  0
  7 30  1  0  0  0  0
  7 31  1  0  0  0  0
  8 10  1  0  0  0  0
  8 18  1  0  0  0  0
 10 11  1  0  0  0  0
 10 14  1  0  0  0  0
 10 32  1  0  0  0  0
 11 33  1  0  0  0  0
 11 34  1  0  0  0  0
 12 17  2  0  0  0  0
 12 23  1  0  0  0  0
 13 14  1  0  0  0  0
 13 16  1  0  0  0  0
 14 35  1  0  0  0  0
 14 36  1  0  0  0  0
 15 25  1  0  0  0  0
 16 17  1  0  0  0  0
 16 24  2  0  0  0  0
 17 37  1  0  0  0  0
 18 19  1  0  0  0  0
 18 38  1  0  0  0  0
 18 39  1  0  0  0  0
 19 40  1  0  0  0  0
 19 41  1  0  0  0  0
 20 26  2  0  0  0  0
 20 42  1  0  0  0  0
 21 27  2  0  0  0  0
 21 43  1  0  0  0  0
 22 23  2  0  0  0  0
 22 24  1  0  0  0  0
 22 44  1  0  0  0  0
 23 45  1  0  0  0  0
 24 46  1  0  0  0  0
 25 47  1  0  0  0  0
 25 48  1  0  0  0  0
 25 49  1  0  0  0  0
 26 27  1  0  0  0  0
 26 50  1  0  0  0  0
 27 51  1  0  0  0  0
M  CHG  1   1   1
M  END
>  <$CLUSTER>
666

>  <INDEX>
437570

$$$$
Comgenex CGX-2065738
  MOE2020           3D

 58 61  0  0  1  0  0  0  0  0999 V2000
    0.3870    0.0220    1.0290 C   0  0  0  0  0  0  0  0  0  0  0  0
   -0.3140    0.8790    1.7950 C   0  0  0  0  0  0  0  0  0  0  0  0
   -0.1950    2.6080    0.0390 C   0  0  0  0  0  0  0  0  0  0  0  0
   -0.6380    2.1490    1.2920 N   0  0  0  0  0  0  0  0  0  0  0  0
    0.8430    0.3390   -0.3660 C   0  0  3  0  0  0  0  0  0  0  0  0
    0.5480    1.7200   -0.7090 N   0  0  0  0  0  0  0  0  0  0  0  0
    1.2720   -4.1420   -4.7120 C   0  0  0  0  0  0  0  0  0  0  0  0
    0.7280   -1.3230    1.5330 C   0  0  0  0  0  0  0  0  0  0  0  0
    2.5400   -4.8290   -5.1510 C   0  0  0  0  0  0  0  0  0  0  0  0
    0.2630   -0.5980   -1.4120 C   0  0  0  0  0  0  0  0  0  0  0  0
    1.5290   -3.1940   -3.7300 N   0  0  0  0  0  0  0  0  0  0  0  0
    2.6350   -6.2490   -5.1120 C   0  0  0  0  0  0  0  0  0  0  0  0
   -0.4230    3.7390   -0.4020 O   0  0  0  0  0  0  0  0  0  0  0  0
    1.1060   -1.4730   -2.1150 C   0  0  0  0  0  0  0  0  0  0  0  0
    0.1910   -4.4420   -5.2090 O   0  0  0  0  0  0  0  0  0  0  0  0
    0.5850   -2.3460   -3.0720 C   0  0  0  0  0  0  0  0  0  0  0  0
   -0.0820   -2.1810    1.8510 O   0  0  0  0  0  0  0  0  0  0  0  0
    3.8280   -6.8370   -5.6070 C   0  0  0  0  0  0  0  0  0  0  0  0
   -0.7590    0.5560    3.2050 C   0  0  0  0  0  0  0  0  0  0  0  0
   -1.4590    3.0600    2.0930 C   0  0  0  0  0  0  0  0  0  0  0  0
    2.0720   -1.4700    1.5780 O   0  0  0  0  0  0  0  0  0  0  0  0
    3.5520   -4.0400   -5.6780 C   0  0  0  0  0  0  0  0  0  0  0  0
   -1.1140   -0.6200   -1.6890 C   0  0  0  0  0  0  0  0  0  0  0  0
    1.6460   -7.1130   -4.5840 C   0  0  0  0  0  0  0  0  0  0  0  0
    4.7140   -4.6350   -6.1560 C   0  0  0  0  0  0  0  0  0  0  0  0
   -1.6320   -1.4940   -2.6470 C   0  0  0  0  0  0  0  0  0  0  0  0
   -0.7830   -2.3560   -3.3380 C   0  0  0  0  0  0  0  0  0  0  0  0
    4.8490   -6.0220   -6.1220 C   0  0  0  0  0  0  0  0  0  0  0  0
    3.9860   -8.2330   -5.5780 C   0  0  0  0  0  0  0  0  0  0  0  0
    2.5680   -2.7390    2.0480 C   0  0  0  0  0  0  0  0  0  0  0  0
    1.8210   -8.4980   -4.5630 C   0  0  0  0  0  0  0  0  0  0  0  0
    4.0830   -2.7070    2.0330 C   0  0  0  0  0  0  0  0  0  0  0  0
    2.9890   -9.0580   -5.0610 C   0  0  0  0  0  0  0  0  0  0  0  0
    1.9230    0.1900   -0.3720 H   0  0  0  0  0  0  0  0  0  0  0  0
    0.9240    2.0630   -1.5810 H   0  0  0  0  0  0  0  0  0  0  0  0
    2.4940   -3.0920   -3.4490 H   0  0  0  0  0  0  0  0  0  0  0  0
    2.1670   -1.4710   -1.9140 H   0  0  0  0  0  0  0  0  0  0  0  0
   -1.3080    1.4040    3.6160 H   0  0  0  0  0  0  0  0  0  0  0  0
    0.1150    0.3540    3.8240 H   0  0  0  0  0  0  0  0  0  0  0  0
   -1.4050   -0.3220    3.1900 H   0  0  0  0  0  0  0  0  0  0  0  0
   -1.7280    2.5760    3.0320 H   0  0  0  0  0  0  0  0  0  0  0  0
   -2.3650    3.3130    1.5420 H   0  0  0  0  0  0  0  0  0  0  0  0
   -0.8950    3.9690    2.3020 H   0  0  0  0  0  0  0  0  0  0  0  0
    3.4380   -2.9670   -5.7170 H   0  0  0  0  0  0  0  0  0  0  0  0
   -1.7780    0.0450   -1.1560 H   0  0  0  0  0  0  0  0  0  0  0  0
    0.7340   -6.6910   -4.1880 H   0  0  0  0  0  0  0  0  0  0  0  0
    5.5110   -4.0240   -6.5530 H   0  0  0  0  0  0  0  0  0  0  0  0
   -2.6920   -1.5020   -2.8530 H   0  0  0  0  0  0  0  0  0  0  0  0
   -1.1850   -3.0310   -4.0790 H   0  0  0  0  0  0  0  0  0  0  0  0
    5.7530   -6.4770   -6.4980 H   0  0  0  0  0  0  0  0  0  0  0  0
    4.8940   -8.6730   -5.9620 H   0  0  0  0  0  0  0  0  0  0  0  0
    2.2120   -3.5360    1.3950 H   0  0  0  0  0  0  0  0  0  0  0  0
    2.2150   -2.9170    3.0640 H   0  0  0  0  0  0  0  0  0  0  0  0
    1.0470   -9.1340   -4.1590 H   0  0  0  0  0  0  0  0  0  0  0  0
    4.4330   -2.5290    1.0160 H   0  0  0  0  0  0  0  0  0  0  0  0
    4.4700   -3.6620    2.3890 H   0  0  0  0  0  0  0  0  0  0  0  0
    4.4360   -1.9070    2.6840 H   0  0  0  0  0  0  0  0  0  0  0  0
    3.1250  -10.1290   -5.0480 H   0  0  0  0  0  0  0  0  0  0  0  0
  1  2  2  0  0  0  0
  1  5  1  0  0  0  0
  1  8  1  0  0  0  0
  2  4  1  0  0  0  0
  2 19  1  0  0  0  0
  3  4  1  0  0  0  0
  3  6  1  0  0  0  0
  3 13  2  0  0  0  0
  4 20  1  0  0  0  0
  5  6  1  0  0  0  0
  5 10  1  0  0  0  0
  5 34  1  0  0  0  0
  6 35  1  0  0  0  0
  7  9  1  0  0  0  0
  7 11  1  0  0  0  0
  7 15  2  0  0  0  0
  8 17  2  0  0  0  0
  8 21  1  0  0  0  0
  9 12  2  0  0  0  0
  9 22  1  0  0  0  0
 10 14  2  0  0  0  0
 10 23  1  0  0  0  0
 11 16  1  0  0  0  0
 11 36  1  0  0  0  0
 12 18  1  0  0  0  0
 12 24  1  0  0  0  0
 14 16  1  0  0  0  0
 14 37  1  0  0  0  0
 16 27  2  0  0  0  0
 18 28  2  0  0  0  0
 18 29  1  0  0  0  0
 19 38  1  0  0  0  0
 19 39  1  0  0  0  0
 19 40  1  0  0  0  0
 20 41  1  0  0  0  0
 20 42  1  0  0  0  0
 20 43  1  0  0  0  0
 21 30  1  0  0  0  0
 22 25  2  0  0  0  0
 22 44  1  0  0  0  0
 23 26  2  0  0  0  0
 23 45  1  0  0  0  0
 24 31  2  0  0  0  0
 24 46  1  0  0  0  0
 25 28  1  0  0  0  0
 25 47  1  0  0  0  0
 26 27  1  0  0  0  0
 26 48  1  0  0  0  0
 27 49  1  0  0  0  0
 28 50  1  0  0  0  0
 29 33  2  0  0  0  0
 29 51  1  0  0  0  0
 30 32  1  0  0  0  0
 30 52  1  0  0  0  0
 30 53  1  0  0  0  0
 31 33  1  0  0  0  0
 31 54  1  0  0  0  0
 32 55  1  0  0  0  0
 32 56  1  0  0  0  0
 32 57  1  0  0  0  0
 33 58  1  0  0  0  0
M  END
>  <$CLUSTER>
667

>  <INDEX>
244896

$$$$
Tripos 1511-01756
  MOE2020           3D

 51 54  0  0  0  0  0  0  0  0999 V2000
   -0.0650    0.1120   -0.7260 N   0  0  0  0  0  0  0  0  0  0  0  0
    2.7700    0.4980   -3.1830 C   0  0  0  0  0  0  0  0  0  0  0  0
   -0.4150    0.0420    0.6310 N   0  0  0  0  0  0  0  0  0  0  0  0
    1.2190    0.3400   -1.1790 C   0  0  0  0  0  0  0  0  0  0  0  0
    3.7600   -0.4460   -3.3710 C   0  0  0  0  0  0  0  0  0  0  0  0
    4.8840    0.2120   -3.8000 N   0  0  0  0  0  0  0  0  0  0  0  0
    0.3860   -0.5290    1.6020 C   0  0  0  0  0  0  0  0  0  0  0  0
    1.3890    0.2420   -2.6750 C   0  0  0  0  0  0  0  0  0  0  0  0
    3.3340    1.7780   -3.4770 C   0  0  0  0  0  0  0  0  0  0  0  0
    4.6550    1.5650   -3.8720 C   0  0  0  0  0  0  0  0  0  0  0  0
    2.1840    0.6360   -0.4740 O   0  0  0  0  0  0  0  0  0  0  0  0
   -0.1530   -0.4110    3.0070 C   0  0  0  0  0  0  0  0  0  0  0  0
    1.4430   -1.1260    1.4010 O   0  0  0  0  0  0  0  0  0  0  0  0
    0.6770   -1.0060    3.9480 O   0  0  0  0  0  0  0  0  0  0  0  0
   -1.3090    0.0130   -1.4840 C   0  0  0  0  0  0  0  0  0  0  0  0
   -1.7820    0.5500    0.7750 C   0  0  0  0  0  0  0  0  0  0  0  0
   -2.2720    0.8210   -0.6370 C   0  0  0  0  0  0  0  0  0  0  0  0
    3.7450   -1.9220   -3.2070 C   0  0  0  0  0  0  0  0  0  0  0  0
    0.3390   -0.9890    5.2550 C   0  0  0  0  0  0  0  0  0  0  0  0
    2.8430    3.1010   -3.4610 C   0  0  0  0  0  0  0  0  0  0  0  0
    5.5100    2.6050   -4.2550 C   0  0  0  0  0  0  0  0  0  0  0  0
    1.2410   -1.6150    6.1230 C   0  0  0  0  0  0  0  0  0  0  0  0
   -0.8170   -0.4040    5.7770 C   0  0  0  0  0  0  0  0  0  0  0  0
    3.6860    4.1520   -3.8390 C   0  0  0  0  0  0  0  0  0  0  0  0
    4.9990    3.9060   -4.2310 C   0  0  0  0  0  0  0  0  0  0  0  0
   -1.0650   -0.4470    7.1520 C   0  0  0  0  0  0  0  0  0  0  0  0
    0.9920   -1.6560    7.4950 C   0  0  0  0  0  0  0  0  0  0  0  0
   -0.1620   -1.0720    8.0110 C   0  0  0  0  0  0  0  0  0  0  0  0
    5.7590   -0.2360   -4.0310 H   0  0  0  0  0  0  0  0  0  0  0  0
    1.1000   -0.7630   -2.9810 H   0  0  0  0  0  0  0  0  0  0  0  0
    0.7210    0.9690   -3.1370 H   0  0  0  0  0  0  0  0  0  0  0  0
   -1.1300   -0.8930    3.0480 H   0  0  0  0  0  0  0  0  0  0  0  0
   -0.2590    0.6460    3.2530 H   0  0  0  0  0  0  0  0  0  0  0  0
   -1.6350   -1.0230   -1.5720 H   0  0  0  0  0  0  0  0  0  0  0  0
   -1.2000    0.4460   -2.4790 H   0  0  0  0  0  0  0  0  0  0  0  0
   -1.7860    1.4690    1.3610 H   0  0  0  0  0  0  0  0  0  0  0  0
   -2.4140   -0.1930    1.2600 H   0  0  0  0  0  0  0  0  0  0  0  0
   -3.2970    0.4760   -0.7700 H   0  0  0  0  0  0  0  0  0  0  0  0
   -2.2120    1.8820   -0.8770 H   0  0  0  0  0  0  0  0  0  0  0  0
    2.7620   -2.2390   -2.8600 H   0  0  0  0  0  0  0  0  0  0  0  0
    4.5000   -2.2140   -2.4770 H   0  0  0  0  0  0  0  0  0  0  0  0
    3.9620   -2.3960   -4.1640 H   0  0  0  0  0  0  0  0  0  0  0  0
    1.8250    3.3010   -3.1600 H   0  0  0  0  0  0  0  0  0  0  0  0
    6.5280    2.4090   -4.5580 H   0  0  0  0  0  0  0  0  0  0  0  0
    2.1370   -2.0700    5.7270 H   0  0  0  0  0  0  0  0  0  0  0  0
   -1.5200    0.0820    5.1170 H   0  0  0  0  0  0  0  0  0  0  0  0
    3.3140    5.1660   -3.8260 H   0  0  0  0  0  0  0  0  0  0  0  0
    5.6320    4.7320   -4.5210 H   0  0  0  0  0  0  0  0  0  0  0  0
   -1.9610    0.0060    7.5510 H   0  0  0  0  0  0  0  0  0  0  0  0
    1.6940   -2.1410    8.1570 H   0  0  0  0  0  0  0  0  0  0  0  0
   -0.3570   -1.1030    9.0730 H   0  0  0  0  0  0  0  0  0  0  0  0
  1  3  1  0  0  0  0
  1  4  1  0  0  0  0
  1 15  1  0  0  0  0
  2  5  2  0  0  0  0
  2  8  1  0  0  0  0
  2  9  1  0  0  0  0
  3  7  1  0  0  0  0
  3 16  1  0  0  0  0
  4  8  1  0  0  0  0
  4 11  2  0  0  0  0
  5  6  1  0  0  0  0
  5 18  1  0  0  0  0
  6 10  1  0  0  0  0
  6 29  1  0  0  0  0
  7 12  1  0  0  0  0
  7 13  2  0  0  0  0
  8 30  1  0  0  0  0
  8 31  1  0  0  0  0
  9 10  2  0  0  0  0
  9 20  1  0  0  0  0
 10 21  1  0  0  0  0
 12 14  1  0  0  0  0
 12 32  1  0  0  0  0
 12 33  1  0  0  0  0
 14 19  1  0  0  0  0
 15 17  1  0  0  0  0
 15 34  1  0  0  0  0
 15 35  1  0  0  0  0
 16 17  1  0  0  0  0
 16 36  1  0  0  0  0
 16 37  1  0  0  0  0
 17 38  1  0  0  0  0
 17 39  1  0  0  0  0
 18 40  1  0  0  0  0
 18 41  1  0  0  0  0
 18 42  1  0  0  0  0
 19 22  1  0  0  0  0
 19 23  2  0  0  0  0
 20 24  2  0  0  0  0
 20 43  1  0  0  0  0
 21 25  2  0  0  0  0
 21 44  1  0  0  0  0
 22 27  2  0  0  0  0
 22 45  1  0  0  0  0
 23 26  1  0  0  0  0
 23 46  1  0  0  0  0
 24 25  1  0  0  0  0
 24 47  1  0  0  0  0
 25 48  1  0  0  0  0
 26 28  2  0  0  0  0
 26 49  1  0  0  0  0
 27 28  1  0  0  0  0
 27 50  1  0  0  0  0
 28 51  1  0  0  0  0
M  END
>  <$CLUSTER>
668

>  <INDEX>
439212

$$$$
Tripos 1511-10577
  MOE2020           3D

 45 47  0  0  0  0  0  0  0  0999 V2000
    0.1430   -0.0200   -1.1680 N   0  0  0  0  0  0  0  0  0  0  0  0
    2.1950    0.8230   -2.2120 C   0  0  0  0  0  0  0  0  0  0  0  0
   -0.6470   -0.3880   -0.0630 N   0  0  0  0  0  0  0  0  0  0  0  0
    1.4860    0.3200   -1.0350 C   0  0  0  0  0  0  0  0  0  0  0  0
   -2.9470   -0.1050    4.0510 C   0  0  0  0  0  0  0  0  0  0  0  0
   -3.8810    0.7520    4.7220 N   0  3  0  0  0  0  0  0  0  0  0  0
   -0.5810    0.2560    1.1590 C   0  0  0  0  0  0  0  0  0  0  0  0
    1.5830    1.3250   -3.2950 N   0  0  0  0  0  0  0  0  0  0  0  0
    3.6060    0.9110   -2.3600 C   0  0  0  0  0  0  0  0  0  0  0  0
   -2.2500    0.4440    2.9750 C   0  0  0  0  0  0  0  0  0  0  0  0
   -1.3340   -0.3450    2.2750 C   0  0  0  0  0  0  0  0  0  0  0  0
   -2.7200   -1.4280    4.4310 C   0  0  0  0  0  0  0  0  0  0  0  0
    2.5870    1.7140   -4.1620 O   0  0  0  0  0  0  0  0  0  0  0  0
   -3.4580   -1.9970    5.5490 N   0  0  0  0  0  0  0  0  0  0  0  0
    3.7920    1.4660   -3.5970 C   0  0  0  0  0  0  0  0  0  0  0  0
   -3.7520    0.9100    5.9470 O   0  5  0  0  0  0  0  0  0  0  0  0
   -3.4060   -3.2760    6.0540 C   0  0  0  0  0  0  0  0  0  0  0  0
    2.1100    0.1810    0.0170 O   0  0  0  0  0  0  0  0  0  0  0  0
   -4.7480    1.3060    4.0250 O   0  0  0  0  0  0  0  0  0  0  0  0
    0.0260    1.2960    1.3950 O   0  0  0  0  0  0  0  0  0  0  0  0
   -1.7910   -2.2060    3.7390 C   0  0  0  0  0  0  0  0  0  0  0  0
   -1.0900   -1.6650    2.6610 C   0  0  0  0  0  0  0  0  0  0  0  0
   -2.7200   -4.2100    5.6450 O   0  0  0  0  0  0  0  0  0  0  0  0
   -0.6760   -0.2120   -2.3720 C   0  0  0  0  0  0  0  0  0  0  0  0
   -1.5580   -1.4300   -0.5290 C   0  0  0  0  0  0  0  0  0  0  0  0
   -1.9330   -0.9350   -1.9110 C   0  0  0  0  0  0  0  0  0  0  0  0
    4.9940    1.7690   -4.2600 C   0  0  0  0  0  0  0  0  0  0  0  0
   -4.3280   -3.4600    7.2380 C   0  0  0  0  0  0  0  0  0  0  0  0
    4.3640    0.6070   -1.6530 H   0  0  0  0  0  0  0  0  0  0  0  0
   -2.4170    1.4710    2.6850 H   0  0  0  0  0  0  0  0  0  0  0  0
   -4.0940   -1.3680    6.0180 H   0  0  0  0  0  0  0  0  0  0  0  0
   -1.6140   -3.2290    4.0380 H   0  0  0  0  0  0  0  0  0  0  0  0
   -0.3640   -2.2620    2.1290 H   0  0  0  0  0  0  0  0  0  0  0  0
   -0.1390   -0.8150   -3.1040 H   0  0  0  0  0  0  0  0  0  0  0  0
   -0.9330    0.7510   -2.8130 H   0  0  0  0  0  0  0  0  0  0  0  0
   -2.4340   -1.5050    0.1150 H   0  0  0  0  0  0  0  0  0  0  0  0
   -1.0590   -2.3980   -0.5780 H   0  0  0  0  0  0  0  0  0  0  0  0
   -2.1710   -1.7670   -2.5730 H   0  0  0  0  0  0  0  0  0  0  0  0
   -2.7820   -0.2530   -1.8650 H   0  0  0  0  0  0  0  0  0  0  0  0
    5.8380    1.4900   -3.6290 H   0  0  0  0  0  0  0  0  0  0  0  0
    5.0350    2.8380   -4.4680 H   0  0  0  0  0  0  0  0  0  0  0  0
    5.0420    1.2140   -5.1970 H   0  0  0  0  0  0  0  0  0  0  0  0
   -4.8460   -2.5230    7.4440 H   0  0  0  0  0  0  0  0  0  0  0  0
   -3.7440   -3.7530    8.1110 H   0  0  0  0  0  0  0  0  0  0  0  0
   -5.0590   -4.2370    7.0120 H   0  0  0  0  0  0  0  0  0  0  0  0
  1  3  1  0  0  0  0
  1  4  1  0  0  0  0
  1 24  1  0  0  0  0
  2  4  1  0  0  0  0
  2  8  2  0  0  0  0
  2  9  1  0  0  0  0
  3  7  1  0  0  0  0
  3 25  1  0  0  0  0
  4 18  2  0  0  0  0
  5  6  1  0  0  0  0
  5 10  2  0  0  0  0
  5 12  1  0  0  0  0
  6 16  1  0  0  0  0
  6 19  2  0  0  0  0
  7 11  1  0  0  0  0
  7 20  2  0  0  0  0
  8 13  1  0  0  0  0
  9 15  2  0  0  0  0
  9 29  1  0  0  0  0
 10 11  1  0  0  0  0
 10 30  1  0  0  0  0
 11 22  2  0  0  0  0
 12 14  1  0  0  0  0
 12 21  2  0  0  0  0
 13 15  1  0  0  0  0
 14 17  1  0  0  0  0
 14 31  1  0  0  0  0
 15 27  1  0  0  0  0
 17 23  2  0  0  0  0
 17 28  1  0  0  0  0
 21 22  1  0  0  0  0
 21 32  1  0  0  0  0
 22 33  1  0  0  0  0
 24 26  1  0  0  0  0
 24 34  1  0  0  0  0
 24 35  1  0  0  0  0
 25 26  1  0  0  0  0
 25 36  1  0  0  0  0
 25 37  1  0  0  0  0
 26 38  1  0  0  0  0
 26 39  1  0  0  0  0
 27 40  1  0  0  0  0
 27 41  1  0  0  0  0
 27 42  1  0  0  0  0
 28 43  1  0  0  0  0
 28 44  1  0  0  0  0
 28 45  1  0  0  0  0
M  CHG  1   6   1
M  CHG  1  16  -1
M  END
>  <$CLUSTER>
669

>  <INDEX>
439994

$$$$
Tripos 1511-16956
  MOE2020           3D

 49 52  0  0  0  0  0  0  0  0999 V2000
   -0.3940   -1.3180   -0.8430 C   0  0  0  0  0  0  0  0  0  0  0  0
    0.6270    0.5250    0.3510 N   0  0  0  0  0  0  0  0  0  0  0  0
   -0.5200   -0.2120    0.0960 C   0  0  0  0  0  0  0  0  0  0  0  0
   -0.7080   -3.2230   -1.8910 N   0  0  0  0  0  0  0  0  0  0  0  0
   -1.1230   -2.4950   -0.8100 C   0  0  0  0  0  0  0  0  0  0  0  0
    0.6130    1.7630    1.0170 N   0  0  0  0  0  0  0  0  0  0  0  0
    0.2230   -2.6130   -2.6380 N   0  0  0  0  0  0  0  0  0  0  0  0
   -0.3810    2.7090    0.8470 C   0  0  0  0  0  0  0  0  0  0  0  0
    0.4010   -1.4510   -2.0080 C   0  0  0  0  0  0  0  0  0  0  0  0
   -1.6040    0.0130    0.6340 O   0  0  0  0  0  0  0  0  0  0  0  0
   -1.1830   -4.5000   -2.4940 C   0  0  0  0  0  0  0  0  0  0  0  0
   -0.2420    3.9300    1.7230 C   0  0  0  0  0  0  0  0  0  0  0  0
   -1.3100    2.6350    0.0420 O   0  0  0  0  0  0  0  0  0  0  0  0
   -2.1250    6.9050    0.3200 N   0  0  0  0  0  0  0  0  0  0  0  0
    2.0340    0.1830    0.1440 C   0  0  0  0  0  0  0  0  0  0  0  0
    1.8570    1.8900    1.7800 C   0  0  0  0  0  0  0  0  0  0  0  0
    2.6820    0.6660    1.4280 C   0  0  0  0  0  0  0  0  0  0  0  0
   -2.1540   -3.0030    0.1260 C   0  0  0  0  0  0  0  0  0  0  0  0
   -1.3020    4.9690    1.5440 C   0  0  0  0  0  0  0  0  0  0  0  0
   -1.1790    5.9620    0.5710 C   0  0  0  0  0  0  0  0  0  0  0  0
   -3.2610    6.8340    1.0620 C   0  0  0  0  0  0  0  0  0  0  0  0
   -2.3660   -5.1160   -2.0730 C   0  0  0  0  0  0  0  0  0  0  0  0
   -0.4210   -5.1260   -3.4980 C   0  0  0  0  0  0  0  0  0  0  0  0
   -2.4980    4.9170    2.2670 C   0  0  0  0  0  0  0  0  0  0  0  0
   -3.4890    5.8690    2.0340 C   0  0  0  0  0  0  0  0  0  0  0  0
   -0.8230   -6.3470   -4.0450 C   0  0  0  0  0  0  0  0  0  0  0  0
   -2.7640   -6.3390   -2.6270 C   0  0  0  0  0  0  0  0  0  0  0  0
   -1.9950   -6.9560   -3.6070 C   0  0  0  0  0  0  0  0  0  0  0  0
    1.0830   -0.6880   -2.3520 H   0  0  0  0  0  0  0  0  0  0  0  0
    0.7220    4.3910    1.5070 H   0  0  0  0  0  0  0  0  0  0  0  0
   -0.2630    3.6030    2.7630 H   0  0  0  0  0  0  0  0  0  0  0  0
    2.4420    0.7030   -0.7230 H   0  0  0  0  0  0  0  0  0  0  0  0
    2.1640   -0.8920    0.0180 H   0  0  0  0  0  0  0  0  0  0  0  0
    1.6460    1.9120    2.8490 H   0  0  0  0  0  0  0  0  0  0  0  0
    2.3860    2.8000    1.4950 H   0  0  0  0  0  0  0  0  0  0  0  0
    3.7270    0.9300    1.2650 H   0  0  0  0  0  0  0  0  0  0  0  0
    2.6160   -0.0900    2.2100 H   0  0  0  0  0  0  0  0  0  0  0  0
   -2.3300   -2.2650    0.9080 H   0  0  0  0  0  0  0  0  0  0  0  0
   -1.8090   -3.9340    0.5760 H   0  0  0  0  0  0  0  0  0  0  0  0
   -3.0810   -3.1840   -0.4180 H   0  0  0  0  0  0  0  0  0  0  0  0
   -0.2750    5.9820   -0.0200 H   0  0  0  0  0  0  0  0  0  0  0  0
   -4.0310    7.5710    0.8860 H   0  0  0  0  0  0  0  0  0  0  0  0
   -2.9760   -4.6460   -1.3160 H   0  0  0  0  0  0  0  0  0  0  0  0
    0.4860   -4.6570   -3.8500 H   0  0  0  0  0  0  0  0  0  0  0  0
   -2.6530    4.1420    3.0030 H   0  0  0  0  0  0  0  0  0  0  0  0
   -4.4110    5.8560    2.5960 H   0  0  0  0  0  0  0  0  0  0  0  0
   -0.2230   -6.8190   -4.8090 H   0  0  0  0  0  0  0  0  0  0  0  0
   -3.6770   -6.8070   -2.2900 H   0  0  0  0  0  0  0  0  0  0  0  0
   -2.3050   -7.9020   -4.0260 H   0  0  0  0  0  0  0  0  0  0  0  0
  1  3  1  0  0  0  0
  1  5  2  0  0  0  0
  1  9  1  0  0  0  0
  2  3  1  0  0  0  0
  2  6  1  0  0  0  0
  2 15  1  0  0  0  0
  3 10  2  0  0  0  0
  4  5  1  0  0  0  0
  4  7  1  0  0  0  0
  4 11  1  0  0  0  0
  5 18  1  0  0  0  0
  6  8  1  0  0  0  0
  6 16  1  0  0  0  0
  7  9  2  0  0  0  0
  8 12  1  0  0  0  0
  8 13  2  0  0  0  0
  9 29  1  0  0  0  0
 11 22  1  0  0  0  0
 11 23  2  0  0  0  0
 12 19  1  0  0  0  0
 12 30  1  0  0  0  0
 12 31  1  0  0  0  0
 14 20  2  0  0  0  0
 14 21  1  0  0  0  0
 15 17  1  0  0  0  0
 15 32  1  0  0  0  0
 15 33  1  0  0  0  0
 16 17  1  0  0  0  0
 16 34  1  0  0  0  0
 16 35  1  0  0  0  0
 17 36  1  0  0  0  0
 17 37  1  0  0  0  0
 18 38  1  0  0  0  0
 18 39  1  0  0  0  0
 18 40  1  0  0  0  0
 19 20  1  0  0  0  0
 19 24  2  0  0  0  0
 20 41  1  0  0  0  0
 21 25  2  0  0  0  0
 21 42  1  0  0  0  0
 22 27  2  0  0  0  0
 22 43  1  0  0  0  0
 23 26  1  0  0  0  0
 23 44  1  0  0  0  0
 24 25  1  0  0  0  0
 24 45  1  0  0  0  0
 25 46  1  0  0  0  0
 26 28  2  0  0  0  0
 26 47  1  0  0  0  0
 27 28  1  0  0  0  0
 27 48  1  0  0  0  0
 28 49  1  0  0  0  0
M  END
>  <$CLUSTER>
670

>  <INDEX>
440613

$$$$
Tripos 1515-06237
  MOE2020           3D

 52 54  0  0  0  0  0  0  0  0999 V2000
   -1.5180    0.2590   -2.3240 C   0  0  0  0  0  0  0  0  0  0  0  0
   -0.9820    0.2830   -1.0830 N   0  0  0  0  0  0  0  0  0  0  0  0
   -1.4010    3.2500   -4.6980 C   0  0  0  0  0  0  0  0  0  0  0  0
   -1.3380    1.3710   -3.0830 N   0  0  0  0  0  0  0  0  0  0  0  0
    0.9820   -0.2830    1.0830 N   0  0  0  0  0  0  0  0  0  0  0  0
   -1.4080    1.8730   -4.3840 C   0  0  0  0  0  0  0  0  0  0  0  0
    1.4590   -0.2440    2.3140 C   0  0  0  0  0  0  0  0  0  0  0  0
   -1.2710    4.2780   -3.6650 C   0  0  0  0  0  0  0  0  0  0  0  0
    2.8020    0.0790    2.6340 C   0  0  0  0  0  0  0  0  0  0  0  0
   -2.3840   -1.0080   -3.0020 S   0  0  0  0  0  0  0  0  0  0  0  0
    0.5960   -0.5350    3.3980 C   0  0  0  0  0  0  0  0  0  0  0  0
   -0.0330    1.3000   -0.5920 C   0  0  0  0  0  0  0  0  0  0  0  0
   -1.2520   -0.6880   -0.0050 C   0  0  0  0  0  0  0  0  0  0  0  0
    1.2520    0.6880    0.0050 C   0  0  0  0  0  0  0  0  0  0  0  0
    0.0330   -1.3000    0.5920 C   0  0  0  0  0  0  0  0  0  0  0  0
    3.2090    0.1520    3.9830 C   0  0  0  0  0  0  0  0  0  0  0  0
   -0.5960    4.1960   -2.6490 O   0  0  0  0  0  0  0  0  0  0  0  0
    1.0180   -0.4750    4.7280 C   0  0  0  0  0  0  0  0  0  0  0  0
    2.3250   -0.1220    5.0210 C   0  0  0  0  0  0  0  0  0  0  0  0
   -2.0100    5.3630   -3.9610 O   0  0  0  0  0  0  0  0  0  0  0  0
   -1.5160    3.6760   -6.0330 C   0  0  0  0  0  0  0  0  0  0  0  0
   -1.4970    0.9610   -5.4470 C   0  0  0  0  0  0  0  0  0  0  0  0
    3.8630    0.3240    1.5910 C   0  0  0  0  0  0  0  0  0  0  0  0
    2.7820   -0.0370    6.4390 C   0  0  0  0  0  0  0  0  0  0  0  0
   -1.9940    6.4620   -3.0490 C   0  0  0  0  0  0  0  0  0  0  0  0
   -1.6290    2.7500   -7.0670 C   0  0  0  0  0  0  0  0  0  0  0  0
   -1.6130    1.3930   -6.7720 C   0  0  0  0  0  0  0  0  0  0  0  0
   -1.0400    2.1200   -2.4740 H   0  0  0  0  0  0  0  0  0  0  0  0
   -0.4260   -0.8140    3.1890 H   0  0  0  0  0  0  0  0  0  0  0  0
   -0.5260    1.8920    0.1790 H   0  0  0  0  0  0  0  0  0  0  0  0
    0.2450    1.9470   -1.4240 H   0  0  0  0  0  0  0  0  0  0  0  0
   -1.8650   -1.4940   -0.4090 H   0  0  0  0  0  0  0  0  0  0  0  0
   -1.7970   -0.1810    0.7910 H   0  0  0  0  0  0  0  0  0  0  0  0
    1.7970    0.1810   -0.7910 H   0  0  0  0  0  0  0  0  0  0  0  0
    1.8650    1.4940    0.4090 H   0  0  0  0  0  0  0  0  0  0  0  0
   -0.2450   -1.9470    1.4240 H   0  0  0  0  0  0  0  0  0  0  0  0
    0.5260   -1.8920   -0.1790 H   0  0  0  0  0  0  0  0  0  0  0  0
    4.2280    0.4260    4.2140 H   0  0  0  0  0  0  0  0  0  0  0  0
    0.3270   -0.7030    5.5260 H   0  0  0  0  0  0  0  0  0  0  0  0
   -1.5170    4.7320   -6.2590 H   0  0  0  0  0  0  0  0  0  0  0  0
   -1.4750   -0.0980   -5.2370 H   0  0  0  0  0  0  0  0  0  0  0  0
    3.4220    0.2390    0.5980 H   0  0  0  0  0  0  0  0  0  0  0  0
    4.6570   -0.4140    1.7000 H   0  0  0  0  0  0  0  0  0  0  0  0
    4.2760    1.3240    1.7210 H   0  0  0  0  0  0  0  0  0  0  0  0
    3.8320    0.2530    6.4650 H   0  0  0  0  0  0  0  0  0  0  0  0
    2.6610   -1.0080    6.9190 H   0  0  0  0  0  0  0  0  0  0  0  0
    2.1860    0.7070    6.9690 H   0  0  0  0  0  0  0  0  0  0  0  0
   -2.6370    7.2570   -3.4270 H   0  0  0  0  0  0  0  0  0  0  0  0
   -0.9750    6.8360   -2.9480 H   0  0  0  0  0  0  0  0  0  0  0  0
   -2.3580    6.1320   -2.0760 H   0  0  0  0  0  0  0  0  0  0  0  0
   -1.7280    3.0840   -8.0890 H   0  0  0  0  0  0  0  0  0  0  0  0
   -1.6900    0.6680   -7.5690 H   0  0  0  0  0  0  0  0  0  0  0  0
  1  2  1  0  0  0  0
  1  4  1  0  0  0  0
  1 10  2  0  0  0  0
  2 12  1  0  0  0  0
  2 13  1  0  0  0  0
  3  6  2  0  0  0  0
  3  8  1  0  0  0  0
  3 21  1  0  0  0  0
  4  6  1  0  0  0  0
  4 28  1  0  0  0  0
  5  7  1  0  0  0  0
  5 14  1  0  0  0  0
  5 15  1  0  0  0  0
  6 22  1  0  0  0  0
  7  9  2  0  0  0  0
  7 11  1  0  0  0  0
  8 17  2  0  0  0  0
  8 20  1  0  0  0  0
  9 16  1  0  0  0  0
  9 23  1  0  0  0  0
 11 18  2  0  0  0  0
 11 29  1  0  0  0  0
 12 14  1  0  0  0  0
 12 30  1  0  0  0  0
 12 31  1  0  0  0  0
 13 15  1  0  0  0  0
 13 32  1  0  0  0  0
 13 33  1  0  0  0  0
 14 34  1  0  0  0  0
 14 35  1  0  0  0  0
 15 36  1  0  0  0  0
 15 37  1  0  0  0  0
 16 19  2  0  0  0  0
 16 38  1  0  0  0  0
 18 19  1  0  0  0  0
 18 39  1  0  0  0  0
 19 24  1  0  0  0  0
 20 25  1  0  0  0  0
 21 26  2  0  0  0  0
 21 40  1  0  0  0  0
 22 27  2  0  0  0  0
 22 41  1  0  0  0  0
 23 42  1  0  0  0  0
 23 43  1  0  0  0  0
 23 44  1  0  0  0  0
 24 45  1  0  0  0  0
 24 46  1  0  0  0  0
 24 47  1  0  0  0  0
 25 48  1  0  0  0  0
 25 49  1  0  0  0  0
 25 50  1  0  0  0  0
 26 27  1  0  0  0  0
 26 51  1  0  0  0  0
 27 52  1  0  0  0  0
M  END
>  <$CLUSTER>
671

>  <INDEX>
442210

$$$$
Tripos 1517-02813
  MOE2020           3D

 51 53  0  0  1  0  0  0  0  0999 V2000
    0.3430    0.1360   -0.3250 C   0  0  0  0  0  0  0  0  0  0  0  0
   -0.5360   -0.7550    0.3300 N   0  0  0  0  0  0  0  0  0  0  0  0
   -2.1800   -0.2710    0.5440 S   0  0  0  0  0  0  0  0  0  0  0  0
    0.3950    0.3880   -1.7230 C   0  0  0  0  0  0  0  0  0  0  0  0
    1.3020    0.9680    0.2250 C   0  0  0  0  0  0  0  0  0  0  0  0
    1.3240    1.3010   -2.0280 N   0  0  0  0  0  0  0  0  0  0  0  0
    1.8560    1.6330   -0.8390 N   0  0  0  0  0  0  0  0  0  0  0  0
    0.0370   -1.9160    0.9770 C   0  0  0  0  0  0  0  0  0  0  0  0
    1.1720   -4.7980    0.9680 C   0  0  0  0  0  0  0  0  0  0  0  0
    1.9670   -3.5020    1.2660 C   0  0  3  0  0  0  0  0  0  0  0  0
    2.0630   -5.7360    0.3850 C   0  0  0  0  0  0  0  0  0  0  0  0
    3.4040   -5.1960    0.3130 C   0  0  0  0  0  0  0  0  0  0  0  0
    1.4380   -2.3280    0.5950 C   0  0  0  0  0  0  0  0  0  0  0  0
    3.4490   -3.7580    0.9170 C   0  0  0  0  0  0  0  0  0  0  0  0
   -3.0100   -1.4470    0.7210 O   0  0  0  0  0  0  0  0  0  0  0  0
   -2.5410    0.7390   -0.4320 O   0  0  0  0  0  0  0  0  0  0  0  0
    1.6140   -6.9770   -0.0180 C   0  0  0  0  0  0  0  0  0  0  0  0
   -0.5910   -2.5810    1.8000 O   0  0  0  0  0  0  0  0  0  0  0  0
   -0.1110   -5.0630    1.1480 C   0  0  0  0  0  0  0  0  0  0  0  0
    4.3610   -5.7930   -0.1530 O   0  0  0  0  0  0  0  0  0  0  0  0
   -2.0580    0.5420    2.1210 C   0  0  0  0  0  0  0  0  0  0  0  0
   -0.5950   -6.3130    0.7480 C   0  0  0  0  0  0  0  0  0  0  0  0
   -0.4110   -0.2250   -2.8050 C   0  0  0  0  0  0  0  0  0  0  0  0
    1.7190    1.1990    1.6310 C   0  0  0  0  0  0  0  0  0  0  0  0
    0.2620   -7.2620    0.1690 C   0  0  0  0  0  0  0  0  0  0  0  0
    2.9120    2.6160   -0.7910 C   0  0  0  0  0  0  0  0  0  0  0  0
   -1.9220   -6.7550    0.8670 O   0  0  0  0  0  0  0  0  0  0  0  0
   -2.8430   -5.8380    1.4470 C   0  0  0  0  0  0  0  0  0  0  0  0
    1.8680   -3.2690    2.3260 H   0  0  0  0  0  0  0  0  0  0  0  0
    2.1020   -1.4920    0.8150 H   0  0  0  0  0  0  0  0  0  0  0  0
    1.4460   -2.5260   -0.4770 H   0  0  0  0  0  0  0  0  0  0  0  0
    4.0760   -3.7230    1.8080 H   0  0  0  0  0  0  0  0  0  0  0  0
    3.8140   -3.0350    0.1880 H   0  0  0  0  0  0  0  0  0  0  0  0
    2.2840   -7.6990   -0.4610 H   0  0  0  0  0  0  0  0  0  0  0  0
   -0.7690   -4.3320    1.5930 H   0  0  0  0  0  0  0  0  0  0  0  0
   -1.7870   -0.1860    2.8850 H   0  0  0  0  0  0  0  0  0  0  0  0
   -3.0180    0.9930    2.3730 H   0  0  0  0  0  0  0  0  0  0  0  0
   -1.2940    1.3180    2.0720 H   0  0  0  0  0  0  0  0  0  0  0  0
   -1.1120   -0.9400   -2.3750 H   0  0  0  0  0  0  0  0  0  0  0  0
    0.2490   -0.7380   -3.5040 H   0  0  0  0  0  0  0  0  0  0  0  0
   -0.9630    0.5530   -3.3320 H   0  0  0  0  0  0  0  0  0  0  0  0
    1.1380    0.5570    2.2930 H   0  0  0  0  0  0  0  0  0  0  0  0
    1.5470    2.2430    1.8940 H   0  0  0  0  0  0  0  0  0  0  0  0
    2.7790    0.9670    1.7380 H   0  0  0  0  0  0  0  0  0  0  0  0
   -0.1290   -8.2220   -0.1340 H   0  0  0  0  0  0  0  0  0  0  0  0
    3.2240    2.7640    0.2430 H   0  0  0  0  0  0  0  0  0  0  0  0
    2.5490    3.5590   -1.1990 H   0  0  0  0  0  0  0  0  0  0  0  0
    3.7600    2.2670   -1.3800 H   0  0  0  0  0  0  0  0  0  0  0  0
   -3.8330   -6.2930    1.4850 H   0  0  0  0  0  0  0  0  0  0  0  0
   -2.8820   -4.9320    0.8430 H   0  0  0  0  0  0  0  0  0  0  0  0
   -2.5190   -5.5880    2.4570 H   0  0  0  0  0  0  0  0  0  0  0  0
  1  2  1  0  0  0  0
  1  4  1  0  0  0  0
  1  5  2  0  0  0  0
  2  3  1  0  0  0  0
  2  8  1  0  0  0  0
  3 15  2  0  0  0  0
  3 16  2  0  0  0  0
  3 21  1  0  0  0  0
  4  6  2  0  0  0  0
  4 23  1  0  0  0  0
  5  7  1  0  0  0  0
  5 24  1  0  0  0  0
  6  7  1  0  0  0  0
  7 26  1  0  0  0  0
  8 13  1  0  0  0  0
  8 18  2  0  0  0  0
  9 10  1  0  0  0  0
  9 11  2  0  0  0  0
  9 19  1  0  0  0  0
 10 13  1  0  0  0  0
 10 14  1  0  0  0  0
 10 29  1  0  0  0  0
 11 12  1  0  0  0  0
 11 17  1  0  0  0  0
 12 14  1  0  0  0  0
 12 20  2  0  0  0  0
 13 30  1  0  0  0  0
 13 31  1  0  0  0  0
 14 32  1  0  0  0  0
 14 33  1  0  0  0  0
 17 25  2  0  0  0  0
 17 34  1  0  0  0  0
 19 22  2  0  0  0  0
 19 35  1  0  0  0  0
 21 36  1  0  0  0  0
 21 37  1  0  0  0  0
 21 38  1  0  0  0  0
 22 25  1  0  0  0  0
 22 27  1  0  0  0  0
 23 39  1  0  0  0  0
 23 40  1  0  0  0  0
 23 41  1  0  0  0  0
 24 42  1  0  0  0  0
 24 43  1  0  0  0  0
 24 44  1  0  0  0  0
 25 45  1  0  0  0  0
 26 46  1  0  0  0  0
 26 47  1  0  0  0  0
 26 48  1  0  0  0  0
 27 28  1  0  0  0  0
 28 49  1  0  0  0  0
 28 50  1  0  0  0  0
 28 51  1  0  0  0  0
M  END
>  <$CLUSTER>
672

>  <INDEX>
442561

$$$$
Tripos 1518-01043
  MOE2020           3D

 46 48  0  0  0  0  0  0  0  0999 V2000
   -0.7330    1.2730   -0.4650 S   0  0  0  0  0  0  0  0  0  0  0  0
   -1.4200    1.0650    1.0870 C   0  0  0  0  0  0  0  0  0  0  0  0
    0.1640   -0.1830   -0.3340 C   0  0  0  0  0  0  0  0  0  0  0  0
    4.8580    4.3860   -2.9250 C   0  0  0  0  0  0  0  0  0  0  0  0
    4.6700    1.9050   -2.4940 N   0  0  0  0  0  0  0  0  0  0  0  0
    2.4080   -0.1140   -1.2790 N   0  0  0  0  0  0  0  0  0  0  0  0
   -0.9790   -0.0880    1.6960 C   0  0  0  0  0  0  0  0  0  0  0  0
   -0.0650   -0.8090    0.8760 C   0  0  0  0  0  0  0  0  0  0  0  0
    4.7820    4.7320   -4.2300 N   0  0  0  0  0  0  0  0  0  0  0  0
    1.0540   -0.6290   -1.4510 C   0  0  0  0  0  0  0  0  0  0  0  0
    5.5680    3.0590   -2.6640 C   0  0  0  0  0  0  0  0  0  0  0  0
    4.3170    5.0320   -2.0320 O   0  0  0  0  0  0  0  0  0  0  0  0
   -2.5790    2.2560    1.7800 Br  0  0  0  0  0  0  0  0  0  0  0  0
    4.2220    5.8400   -4.8810 C   0  0  0  0  0  0  0  0  0  0  0  0
    2.5050    1.3490   -1.4590 C   0  0  0  0  0  0  0  0  0  0  0  0
    3.8360    2.0520   -1.2810 C   0  0  0  0  0  0  0  0  0  0  0  0
    4.7980   -0.6110   -1.9500 C   0  0  0  0  0  0  0  0  0  0  0  0
    3.1130    8.0210   -6.2640 C   0  0  0  0  0  0  0  0  0  0  0  0
    2.6160    9.0220   -6.9900 F   0  0  0  0  0  0  0  0  0  0  0  0
    5.4520    0.6510   -2.5160 C   0  0  0  0  0  0  0  0  0  0  0  0
    3.3180   -0.7560   -2.2930 C   0  0  0  0  0  0  0  0  0  0  0  0
    3.5390    6.8440   -4.1890 C   0  0  0  0  0  0  0  0  0  0  0  0
    4.3420    5.9430   -6.2760 C   0  0  0  0  0  0  0  0  0  0  0  0
    3.7910    7.0270   -6.9630 C   0  0  0  0  0  0  0  0  0  0  0  0
    2.9870    7.9290   -4.8790 C   0  0  0  0  0  0  0  0  0  0  0  0
   -1.2900   -0.4080    2.6800 H   0  0  0  0  0  0  0  0  0  0  0  0
    0.3970   -1.7410    1.1670 H   0  0  0  0  0  0  0  0  0  0  0  0
    5.2110    4.0650   -4.8550 H   0  0  0  0  0  0  0  0  0  0  0  0
    0.6510   -0.2630   -2.3950 H   0  0  0  0  0  0  0  0  0  0  0  0
    1.0870   -1.7180   -1.4670 H   0  0  0  0  0  0  0  0  0  0  0  0
    6.1620    3.1640   -1.7560 H   0  0  0  0  0  0  0  0  0  0  0  0
    6.2270    2.8550   -3.5080 H   0  0  0  0  0  0  0  0  0  0  0  0
    1.8140    1.7990   -0.7460 H   0  0  0  0  0  0  0  0  0  0  0  0
    2.1700    1.5630   -2.4740 H   0  0  0  0  0  0  0  0  0  0  0  0
    3.6590    3.1110   -1.0940 H   0  0  0  0  0  0  0  0  0  0  0  0
    4.3600    1.6160   -0.4310 H   0  0  0  0  0  0  0  0  0  0  0  0
    4.8970   -0.5900   -0.8650 H   0  0  0  0  0  0  0  0  0  0  0  0
    5.3270   -1.4780   -2.3460 H   0  0  0  0  0  0  0  0  0  0  0  0
    6.3640    0.8270   -1.9460 H   0  0  0  0  0  0  0  0  0  0  0  0
    5.7070    0.4460   -3.5560 H   0  0  0  0  0  0  0  0  0  0  0  0
    3.1400   -0.2900   -3.2620 H   0  0  0  0  0  0  0  0  0  0  0  0
    3.0780   -1.8180   -2.3510 H   0  0  0  0  0  0  0  0  0  0  0  0
    3.4370    6.7820   -3.1160 H   0  0  0  0  0  0  0  0  0  0  0  0
    4.8670    5.1750   -6.8240 H   0  0  0  0  0  0  0  0  0  0  0  0
    3.8910    7.0940   -8.0360 H   0  0  0  0  0  0  0  0  0  0  0  0
    2.4600    8.6990   -4.3350 H   0  0  0  0  0  0  0  0  0  0  0  0
  1  2  1  0  0  0  0
  1  3  1  0  0  0  0
  2  7  2  0  0  0  0
  2 13  1  0  0  0  0
  3  8  2  0  0  0  0
  3 10  1  0  0  0  0
  4  9  1  0  0  0  0
  4 11  1  0  0  0  0
  4 12  2  0  0  0  0
  5 11  1  0  0  0  0
  5 16  1  0  0  0  0
  5 20  1  0  0  0  0
  6 10  1  0  0  0  0
  6 15  1  0  0  0  0
  6 21  1  0  0  0  0
  7  8  1  0  0  0  0
  7 26  1  0  0  0  0
  8 27  1  0  0  0  0
  9 14  1  0  0  0  0
  9 28  1  0  0  0  0
 10 29  1  0  0  0  0
 10 30  1  0  0  0  0
 11 31  1  0  0  0  0
 11 32  1  0  0  0  0
 14 22  1  0  0  0  0
 14 23  2  0  0  0  0
 15 16  1  0  0  0  0
 15 33  1  0  0  0  0
 15 34  1  0  0  0  0
 16 35  1  0  0  0  0
 16 36  1  0  0  0  0
 17 20  1  0  0  0  0
 17 21  1  0  0  0  0
 17 37  1  0  0  0  0
 17 38  1  0  0  0  0
 18 19  1  0  0  0  0
 18 24  2  0  0  0  0
 18 25  1  0  0  0  0
 20 39  1  0  0  0  0
 20 40  1  0  0  0  0
 21 41  1  0  0  0  0
 21 42  1  0  0  0  0
 22 25  2  0  0  0  0
 22 43  1  0  0  0  0
 23 24  1  0  0  0  0
 23 44  1  0  0  0  0
 24 45  1  0  0  0  0
 25 46  1  0  0  0  0
M  END
>  <$CLUSTER>
673

>  <INDEX>
442863

$$$$
Tripos 1518-03381
  MOE2020           3D

 50 53  0  0  1  0  0  0  0  0999 V2000
   -0.0020   -1.2270   -0.7280 C   0  0  0  0  0  0  0  0  0  0  0  0
    1.6410   -1.5170   -2.6070 C   0  0  0  0  0  0  0  0  0  0  0  0
    0.2090   -0.0700    0.1200 C   0  0  0  0  0  0  0  0  0  0  0  0
    2.6700   -2.2540   -3.2200 N   0  0  0  0  0  0  0  0  0  0  0  0
   -2.3470   -0.3230   -0.1630 S   0  0  0  0  0  0  0  0  0  0  0  0
   -1.3460   -1.4540   -0.9460 C   0  0  0  0  0  0  0  0  0  0  0  0
    1.0910   -2.0820   -1.3060 C   0  0  0  0  0  0  0  0  0  0  0  0
   -1.0020    0.5180    0.5010 C   0  0  0  0  0  0  0  0  0  0  0  0
    1.6550   -3.5430   -5.2160 N   0  3  3  0  0  0  0  0  0  0  0  0
    1.4070    0.5230    0.5960 C   0  0  0  0  0  0  0  0  0  0  0  0
    1.1950   -0.4700   -3.0800 O   0  0  0  0  0  0  0  0  0  0  0  0
    3.2490   -1.7770   -4.4700 C   0  0  0  0  0  0  0  0  0  0  0  0
   -0.9190   -0.6140   -7.7410 N   0  0  0  0  0  0  0  0  0  0  0  0
    0.5230   -3.7580   -6.1630 C   0  0  0  0  0  0  0  0  0  0  0  0
   -1.0440    1.6600    1.3270 C   0  0  0  0  0  0  0  0  0  0  0  0
   -0.3410   -2.5280   -6.3730 C   0  0  0  0  0  0  0  0  0  0  0  0
    2.6870   -2.5400   -5.7080 C   0  0  0  0  0  0  0  0  0  0  0  0
    1.3700    1.6550    1.4150 C   0  0  0  0  0  0  0  0  0  0  0  0
    3.4450   -4.5860   -3.7720 C   0  0  0  0  0  0  0  0  0  0  0  0
    3.2370   -3.4980   -2.7060 C   0  0  0  0  0  0  0  0  0  0  0  0
    0.1550    2.2160    1.7760 C   0  0  0  0  0  0  0  0  0  0  0  0
    2.8360    2.3330    1.9620 Cl  0  0  0  0  0  0  0  0  0  0  0  0
    2.2330   -4.8300   -4.6800 C   0  0  0  0  0  0  0  0  0  0  0  0
   -0.1960   -1.7410   -7.5050 C   0  0  0  0  0  0  0  0  0  0  0  0
   -1.8140   -0.2560   -6.7860 C   0  0  0  0  0  0  0  0  0  0  0  0
   -1.2590   -2.1220   -5.4010 C   0  0  0  0  0  0  0  0  0  0  0  0
   -2.0150   -0.9710   -5.6140 C   0  0  0  0  0  0  0  0  0  0  0  0
   -1.7230   -2.2650   -1.5510 H   0  0  0  0  0  0  0  0  0  0  0  0
    0.6920   -3.0780   -1.4980 H   0  0  0  0  0  0  0  0  0  0  0  0
    1.9030   -2.1490   -0.5820 H   0  0  0  0  0  0  0  0  0  0  0  0
    1.2500   -3.0910   -4.4080 H   0  0  0  0  0  0  0  0  0  0  0  0
    2.3600    0.0940    0.3220 H   0  0  0  0  0  0  0  0  0  0  0  0
    4.3290   -1.9170   -4.4320 H   0  0  0  0  0  0  0  0  0  0  0  0
    3.0230   -0.7160   -4.5790 H   0  0  0  0  0  0  0  0  0  0  0  0
   -0.1060   -4.5570   -5.7710 H   0  0  0  0  0  0  0  0  0  0  0  0
    0.9340   -4.0580   -7.1270 H   0  0  0  0  0  0  0  0  0  0  0  0
   -1.9900    2.0980    1.6080 H   0  0  0  0  0  0  0  0  0  0  0  0
    2.2190   -1.8350   -6.3950 H   0  0  0  0  0  0  0  0  0  0  0  0
    3.4960   -3.0620   -6.2190 H   0  0  0  0  0  0  0  0  0  0  0  0
    3.6820   -5.5200   -3.2630 H   0  0  0  0  0  0  0  0  0  0  0  0
    4.2860   -4.2910   -4.3990 H   0  0  0  0  0  0  0  0  0  0  0  0
    2.5640   -3.8910   -1.9440 H   0  0  0  0  0  0  0  0  0  0  0  0
    4.2040   -3.2720   -2.2550 H   0  0  0  0  0  0  0  0  0  0  0  0
    0.1360    3.0900    2.4100 H   0  0  0  0  0  0  0  0  0  0  0  0
    2.5430   -5.4520   -5.5200 H   0  0  0  0  0  0  0  0  0  0  0  0
    1.4640   -5.3490   -4.1080 H   0  0  0  0  0  0  0  0  0  0  0  0
    0.5340   -2.0410   -8.2420 H   0  0  0  0  0  0  0  0  0  0  0  0
   -2.4030    0.6350   -6.9470 H   0  0  0  0  0  0  0  0  0  0  0  0
   -1.3810   -2.6950   -4.4940 H   0  0  0  0  0  0  0  0  0  0  0  0
   -2.7400   -0.6430   -4.8840 H   0  0  0  0  0  0  0  0  0  0  0  0
  1  3  1  0  0  0  0
  1  6  2  0  0  0  0
  1  7  1  0  0  0  0
  2  4  1  0  0  0  0
  2  7  1  0  0  0  0
  2 11  2  0  0  0  0
  3  8  2  0  0  0  0
  3 10  1  0  0  0  0
  4 12  1  0  0  0  0
  4 20  1  0  0  0  0
  5  6  1  0  0  0  0
  5  8  1  0  0  0  0
  6 28  1  0  0  0  0
  7 29  1  0  0  0  0
  7 30  1  0  0  0  0
  8 15  1  0  0  0  0
  9 14  1  0  0  0  0
  9 17  1  0  0  0  0
  9 23  1  0  0  0  0
  9 31  1  0  0  0  0
 10 18  2  0  0  0  0
 10 32  1  0  0  0  0
 12 17  1  0  0  0  0
 12 33  1  0  0  0  0
 12 34  1  0  0  0  0
 13 24  2  0  0  0  0
 13 25  1  0  0  0  0
 14 16  1  0  0  0  0
 14 35  1  0  0  0  0
 14 36  1  0  0  0  0
 15 21  2  0  0  0  0
 15 37  1  0  0  0  0
 16 24  1  0  0  0  0
 16 26  2  0  0  0  0
 17 38  1  0  0  0  0
 17 39  1  0  0  0  0
 18 21  1  0  0  0  0
 18 22  1  0  0  0  0
 19 20  1  0  0  0  0
 19 23  1  0  0  0  0
 19 40  1  0  0  0  0
 19 41  1  0  0  0  0
 20 42  1  0  0  0  0
 20 43  1  0  0  0  0
 21 44  1  0  0  0  0
 23 45  1  0  0  0  0
 23 46  1  0  0  0  0
 24 47  1  0  0  0  0
 25 27  2  0  0  0  0
 25 48  1  0  0  0  0
 26 27  1  0  0  0  0
 26 49  1  0  0  0  0
 27 50  1  0  0  0  0
M  CHG  1   9   1
M  END
>  <$CLUSTER>
674

>  <INDEX>
443046

$$$$
Tripos 1518-06794
  MOE2020           3D

 51 54  0  0  1  0  0  0  0  0999 V2000
    0.5650   -0.3340    1.0610 N   0  0  0  0  0  0  0  0  0  0  0  0
   -0.5370   -3.5450   -1.8880 C   0  0  0  0  0  0  0  0  0  0  0  0
    0.1940    0.2220   -0.1360 C   0  0  0  0  0  0  0  0  0  0  0  0
   -0.5980   -0.6010    1.5990 C   0  0  0  0  0  0  0  0  0  0  0  0
    0.0550   -3.0210   -3.1720 C   0  0  0  0  0  0  0  0  0  0  0  0
   -1.1280    0.2950   -0.3450 N   0  0  0  0  0  0  0  0  0  0  0  0
   -2.1660   -3.9700   -1.8110 S   0  0  0  0  0  0  0  0  0  0  0  0
   -1.6600   -0.2570    0.8260 O   0  0  0  0  0  0  0  0  0  0  0  0
    1.3920   -2.6970   -3.1510 N   0  0  0  0  0  0  0  0  0  0  0  0
   -2.0410   -4.4220   -0.1690 C   0  0  0  0  0  0  0  0  0  0  0  0
    0.1200   -3.7380   -0.6780 C   0  0  0  0  0  0  0  0  0  0  0  0
   -0.7660   -4.2490    0.3150 C   0  0  0  0  0  0  0  0  0  0  0  0
    1.6720   -0.3980   -2.0110 N   0  3  3  0  0  0  0  0  0  0  0  0
    1.1810    0.6890   -1.1250 C   0  0  0  0  0  0  0  0  0  0  0  0
   -0.6670   -2.9080   -4.1660 O   0  0  0  0  0  0  0  0  0  0  0  0
   -0.8830   -1.1870    2.8480 C   0  0  0  0  0  0  0  0  0  0  0  0
    2.2970   -2.8150   -1.9870 C   0  0  0  0  0  0  0  0  0  0  0  0
   -3.4620   -5.0330    0.6980 S   0  0  0  0  0  0  0  0  0  0  0  0
    2.5350   -1.4260   -1.3110 C   0  0  0  0  0  0  0  0  0  0  0  0
    2.9720   -0.9750   -4.1220 C   0  0  0  0  0  0  0  0  0  0  0  0
    2.0540   -2.1790   -4.3550 C   0  0  0  0  0  0  0  0  0  0  0  0
    2.3810    0.1200   -3.2430 C   0  0  0  0  0  0  0  0  0  0  0  0
   -2.1960   -1.4060    3.2780 C   0  0  0  0  0  0  0  0  0  0  0  0
    0.1830   -1.5570    3.6780 C   0  0  0  0  0  0  0  0  0  0  0  0
   -2.9910   -4.8440    2.4300 C   0  0  0  0  0  0  0  0  0  0  0  0
   -2.4400   -1.9900    4.5240 C   0  0  0  0  0  0  0  0  0  0  0  0
   -0.0630   -2.1410    4.9230 C   0  0  0  0  0  0  0  0  0  0  0  0
   -1.3750   -2.3560    5.3460 C   0  0  0  0  0  0  0  0  0  0  0  0
    1.1660   -3.5280   -0.5120 H   0  0  0  0  0  0  0  0  0  0  0  0
   -0.4700   -4.4740    1.3290 H   0  0  0  0  0  0  0  0  0  0  0  0
    0.8270   -0.8690   -2.3020 H   0  0  0  0  0  0  0  0  0  0  0  0
    2.0320    1.1150   -0.5930 H   0  0  0  0  0  0  0  0  0  0  0  0
    0.7170    1.4580   -1.7430 H   0  0  0  0  0  0  0  0  0  0  0  0
    3.2540   -3.2170   -2.3200 H   0  0  0  0  0  0  0  0  0  0  0  0
    1.8520   -3.4930   -1.2590 H   0  0  0  0  0  0  0  0  0  0  0  0
    2.2630   -1.4780   -0.2570 H   0  0  0  0  0  0  0  0  0  0  0  0
    3.5850   -1.1480   -1.4020 H   0  0  0  0  0  0  0  0  0  0  0  0
    3.2110   -0.5390   -5.0920 H   0  0  0  0  0  0  0  0  0  0  0  0
    3.8860   -1.3330   -3.6490 H   0  0  0  0  0  0  0  0  0  0  0  0
    1.2820   -1.8830   -5.0650 H   0  0  0  0  0  0  0  0  0  0  0  0
    2.6530   -2.9830   -4.7840 H   0  0  0  0  0  0  0  0  0  0  0  0
    3.1900    0.7770   -2.9230 H   0  0  0  0  0  0  0  0  0  0  0  0
    1.6650    0.6880   -3.8370 H   0  0  0  0  0  0  0  0  0  0  0  0
   -3.0240   -1.1230    2.6450 H   0  0  0  0  0  0  0  0  0  0  0  0
    1.2000   -1.3900    3.3540 H   0  0  0  0  0  0  0  0  0  0  0  0
   -3.8030   -5.1940    3.0680 H   0  0  0  0  0  0  0  0  0  0  0  0
   -2.7920   -3.7930    2.6400 H   0  0  0  0  0  0  0  0  0  0  0  0
   -2.0940   -5.4310    2.6290 H   0  0  0  0  0  0  0  0  0  0  0  0
   -3.4560   -2.1580    4.8510 H   0  0  0  0  0  0  0  0  0  0  0  0
    0.7630   -2.4260    5.5580 H   0  0  0  0  0  0  0  0  0  0  0  0
   -1.5650   -2.8060    6.3090 H   0  0  0  0  0  0  0  0  0  0  0  0
  1  3  1  0  0  0  0
  1  4  2  0  0  0  0
  2  5  1  0  0  0  0
  2  7  1  0  0  0  0
  2 11  2  0  0  0  0
  3  6  2  0  0  0  0
  3 14  1  0  0  0  0
  4  8  1  0  0  0  0
  4 16  1  0  0  0  0
  5  9  1  0  0  0  0
  5 15  2  0  0  0  0
  6  8  1  0  0  0  0
  7 10  1  0  0  0  0
  9 17  1  0  0  0  0
  9 21  1  0  0  0  0
 10 12  2  0  0  0  0
 10 18  1  0  0  0  0
 11 12  1  0  0  0  0
 11 29  1  0  0  0  0
 12 30  1  0  0  0  0
 13 14  1  0  0  0  0
 13 19  1  0  0  0  0
 13 22  1  0  0  0  0
 13 31  1  0  0  0  0
 14 32  1  0  0  0  0
 14 33  1  0  0  0  0
 16 23  2  0  0  0  0
 16 24  1  0  0  0  0
 17 19  1  0  0  0  0
 17 34  1  0  0  0  0
 17 35  1  0  0  0  0
 18 25  1  0  0  0  0
 19 36  1  0  0  0  0
 19 37  1  0  0  0  0
 20 21  1  0  0  0  0
 20 22  1  0  0  0  0
 20 38  1  0  0  0  0
 20 39  1  0  0  0  0
 21 40  1  0  0  0  0
 21 41  1  0  0  0  0
 22 42  1  0  0  0  0
 22 43  1  0  0  0  0
 23 26  1  0  0  0  0
 23 44  1  0  0  0  0
 24 27  2  0  0  0  0
 24 45  1  0  0  0  0
 25 46  1  0  0  0  0
 25 47  1  0  0  0  0
 25 48  1  0  0  0  0
 26 28  2  0  0  0  0
 26 49  1  0  0  0  0
 27 28  1  0  0  0  0
 27 50  1  0  0  0  0
 28 51  1  0  0  0  0
M  CHG  1  13   1
M  END
>  <$CLUSTER>
675

>  <INDEX>
443512

$$$$
Tripos 1518-07905
  MOE2020           3D

 55 58  0  0  1  0  0  0  0  0999 V2000
    0.4530   -0.4390    0.1640 N   0  0  0  0  0  0  0  0  0  0  0  0
    2.5670   -0.9920    1.0430 C   0  0  3  0  0  0  0  0  0  0  0  0
    1.1190   -1.1300   -0.8420 C   0  0  0  0  0  0  0  0  0  0  0  0
    3.4960    0.2040    0.8120 C   0  0  0  0  0  0  0  0  0  0  0  0
    1.1610   -0.5540    1.4230 C   0  0  0  0  0  0  0  0  0  0  0  0
    4.7760    2.5320   -3.1410 N   0  0  0  0  0  0  0  0  0  0  0  0
    4.8560   -0.0680    0.8100 N   0  0  0  0  0  0  0  0  0  0  0  0
    4.4090    1.2680   -3.3240 C   0  0  0  0  0  0  0  0  0  0  0  0
    2.3390   -1.7810   -0.2360 C   0  0  0  0  0  0  0  0  0  0  0  0
    3.0700    1.1300   -3.6920 C   0  0  0  0  0  0  0  0  0  0  0  0
    3.6330    3.2670   -3.4190 O   0  0  0  0  0  0  0  0  0  0  0  0
   -0.7670    0.2770    0.0440 C   0  0  0  0  0  0  0  0  0  0  0  0
    2.6230    2.4230   -3.7460 C   0  0  0  0  0  0  0  0  0  0  0  0
    5.6740   -0.1180   -1.6420 N   0  3  3  0  0  0  0  0  0  0  0  0
    0.8100   -1.2840   -2.0180 O   0  0  0  0  0  0  0  0  0  0  0  0
    3.0130    1.3160    0.6200 O   0  0  0  0  0  0  0  0  0  0  0  0
    5.4200    0.1620   -3.0850 C   0  0  0  0  0  0  0  0  0  0  0  0
    5.7830    1.0320    0.5670 C   0  0  0  0  0  0  0  0  0  0  0  0
   -1.3680    0.5150   -1.2010 C   0  0  0  0  0  0  0  0  0  0  0  0
   -1.4200    0.7730    1.1870 C   0  0  0  0  0  0  0  0  0  0  0  0
    6.3220    1.0380   -0.8960 C   0  0  0  0  0  0  0  0  0  0  0  0
    6.6420   -1.6920    0.0790 C   0  0  0  0  0  0  0  0  0  0  0  0
   -3.1970    1.7070   -0.1590 C   0  0  0  0  0  0  0  0  0  0  0  0
    5.4920   -1.3620    1.0440 C   0  0  0  0  0  0  0  0  0  0  0  0
   -2.6220    1.4800    1.0870 C   0  0  0  0  0  0  0  0  0  0  0  0
   -2.5700    1.2230   -1.3030 C   0  0  0  0  0  0  0  0  0  0  0  0
   -4.3400    2.3910   -0.1690 F   0  0  0  0  0  0  0  0  0  0  0  0
    6.3180   -1.4610   -1.4020 C   0  0  0  0  0  0  0  0  0  0  0  0
    1.3430    2.9030   -4.0770 C   0  0  0  0  0  0  0  0  0  0  0  0
    3.0600   -1.5710    1.8240 H   0  0  0  0  0  0  0  0  0  0  0  0
    0.6870   -1.2990    2.0630 H   0  0  0  0  0  0  0  0  0  0  0  0
    1.1850    0.4060    1.9390 H   0  0  0  0  0  0  0  0  0  0  0  0
    2.1510   -2.8320   -0.0170 H   0  0  0  0  0  0  0  0  0  0  0  0
    3.1970   -1.6970   -0.9030 H   0  0  0  0  0  0  0  0  0  0  0  0
    2.5190    0.2220   -3.8870 H   0  0  0  0  0  0  0  0  0  0  0  0
    4.7610   -0.1950   -1.2170 H   0  0  0  0  0  0  0  0  0  0  0  0
    6.3620    0.4510   -3.5500 H   0  0  0  0  0  0  0  0  0  0  0  0
    5.0490   -0.7500   -3.5520 H   0  0  0  0  0  0  0  0  0  0  0  0
    6.6260    0.9380    1.2510 H   0  0  0  0  0  0  0  0  0  0  0  0
    5.2670    1.9740    0.7540 H   0  0  0  0  0  0  0  0  0  0  0  0
   -0.8940    0.1450   -2.0980 H   0  0  0  0  0  0  0  0  0  0  0  0
   -0.9840    0.6040    2.1610 H   0  0  0  0  0  0  0  0  0  0  0  0
    6.0660    1.9800   -1.3800 H   0  0  0  0  0  0  0  0  0  0  0  0
    7.4050    0.9140   -0.8910 H   0  0  0  0  0  0  0  0  0  0  0  0
    6.9050   -2.7420    0.2100 H   0  0  0  0  0  0  0  0  0  0  0  0
    7.4960   -1.0680    0.3420 H   0  0  0  0  0  0  0  0  0  0  0  0
    4.7320   -2.1370    0.9460 H   0  0  0  0  0  0  0  0  0  0  0  0
    5.8880   -1.3680    2.0600 H   0  0  0  0  0  0  0  0  0  0  0  0
   -3.1050    1.8510    1.9790 H   0  0  0  0  0  0  0  0  0  0  0  0
   -3.0130    1.3950   -2.2730 H   0  0  0  0  0  0  0  0  0  0  0  0
    7.2430   -1.5140   -1.9760 H   0  0  0  0  0  0  0  0  0  0  0  0
    5.6360   -2.2420   -1.7380 H   0  0  0  0  0  0  0  0  0  0  0  0
    0.6880    2.0620   -4.3050 H   0  0  0  0  0  0  0  0  0  0  0  0
    1.4130    3.5550   -4.9470 H   0  0  0  0  0  0  0  0  0  0  0  0
    0.9360    3.4630   -3.2350 H   0  0  0  0  0  0  0  0  0  0  0  0
  1  3  1  0  0  0  0
  1  5  1  0  0  0  0
  1 12  1  0  0  0  0
  2  4  1  0  0  0  0
  2  5  1  0  0  0  0
  2  9  1  0  0  0  0
  2 30  1  0  0  0  0
  3  9  1  0  0  0  0
  3 15  2  0  0  0  0
  4  7  1  0  0  0  0
  4 16  2  0  0  0  0
  5 31  1  0  0  0  0
  5 32  1  0  0  0  0
  6  8  2  0  0  0  0
  6 11  1  0  0  0  0
  7 18  1  0  0  0  0
  7 24  1  0  0  0  0
  8 10  1  0  0  0  0
  8 17  1  0  0  0  0
  9 33  1  0  0  0  0
  9 34  1  0  0  0  0
 10 13  2  0  0  0  0
 10 35  1  0  0  0  0
 11 13  1  0  0  0  0
 12 19  1  0  0  0  0
 12 20  2  0  0  0  0
 13 29  1  0  0  0  0
 14 17  1  0  0  0  0
 14 21  1  0  0  0  0
 14 28  1  0  0  0  0
 14 36  1  0  0  0  0
 17 37  1  0  0  0  0
 17 38  1  0  0  0  0
 18 21  1  0  0  0  0
 18 39  1  0  0  0  0
 18 40  1  0  0  0  0
 19 26  2  0  0  0  0
 19 41  1  0  0  0  0
 20 25  1  0  0  0  0
 20 42  1  0  0  0  0
 21 43  1  0  0  0  0
 21 44  1  0  0  0  0
 22 24  1  0  0  0  0
 22 28  1  0  0  0  0
 22 45  1  0  0  0  0
 22 46  1  0  0  0  0
 23 25  2  0  0  0  0
 23 26  1  0  0  0  0
 23 27  1  0  0  0  0
 24 47  1  0  0  0  0
 24 48  1  0  0  0  0
 25 49  1  0  0  0  0
 26 50  1  0  0  0  0
 28 51  1  0  0  0  0
 28 52  1  0  0  0  0
 29 53  1  0  0  0  0
 29 54  1  0  0  0  0
 29 55  1  0  0  0  0
M  CHG  1  14   1
M  END
>  <$CLUSTER>
676

>  <INDEX>
443589

$$$$
Tripos 1520-06332
  MOE2020           3D

 61 64  0  0  1  0  0  0  0  0999 V2000
    0.2150   -0.0060   -0.6290 C   0  0  0  0  0  0  0  0  0  0  0  0
    0.5060    0.6610    0.5350 C   0  0  0  0  0  0  0  0  0  0  0  0
   -0.3290    0.1930    1.5030 N   0  0  0  0  0  0  0  0  0  0  0  0
   -1.1710   -0.7540    1.0460 N   0  0  0  0  0  0  0  0  0  0  0  0
   -0.3050    5.4280   -7.6250 C   0  0  0  0  0  0  0  0  0  0  0  0
   -0.8470   -0.8780   -0.2490 C   0  0  0  0  0  0  0  0  0  0  0  0
   -0.5740    4.2950   -6.9160 N   0  0  0  0  0  0  0  0  0  0  0  0
    0.1480    5.2310   -8.9130 N   0  0  0  0  0  0  0  0  0  0  0  0
    0.2460    1.2480   -2.7590 N   0  3  3  0  0  0  0  0  0  0  0  0
    0.8430    0.1460   -1.9620 C   0  0  0  0  0  0  0  0  0  0  0  0
    0.5270    6.0850   -9.9470 C   0  0  0  0  0  0  0  0  0  0  0  0
    0.0570    2.2310   -4.9240 C   0  0  0  0  0  0  0  0  0  0  0  0
   -0.4610    6.5700   -7.1860 O   0  0  0  0  0  0  0  0  0  0  0  0
   -0.3280    2.9130   -7.3400 C   0  0  0  0  0  0  0  0  0  0  0  0
   -1.1940    4.3410   -5.5880 C   0  0  0  0  0  0  0  0  0  0  0  0
    1.6530    1.8710    0.8760 Cl  0  0  0  0  0  0  0  0  0  0  0  0
    1.1040    1.6510   -3.9380 C   0  0  0  0  0  0  0  0  0  0  0  0
    0.9630    5.5400  -11.1760 C   0  0  0  0  0  0  0  0  0  0  0  0
   -1.1730    0.9840   -3.2150 C   0  0  0  0  0  0  0  0  0  0  0  0
    0.5760    2.1970   -6.3630 C   0  0  0  0  0  0  0  0  0  0  0  0
   -0.3230    3.6750   -4.5570 C   0  0  0  0  0  0  0  0  0  0  0  0
   -0.4010    0.5850    2.8890 C   0  0  0  0  0  0  0  0  0  0  0  0
   -1.1240    1.2750   -4.7260 C   0  0  0  0  0  0  0  0  0  0  0  0
   -1.5750   -1.8480   -1.1020 C   0  0  0  0  0  0  0  0  0  0  0  0
    0.9790    4.1670  -11.2490 O   0  0  0  0  0  0  0  0  0  0  0  0
    0.4830    7.4760   -9.7960 C   0  0  0  0  0  0  0  0  0  0  0  0
    1.3430    6.3910  -12.2200 C   0  0  0  0  0  0  0  0  0  0  0  0
    1.4130    3.5830  -12.4710 C   0  0  0  0  0  0  0  0  0  0  0  0
    0.8650    8.3160  -10.8450 C   0  0  0  0  0  0  0  0  0  0  0  0
    1.2930    7.7750  -12.0530 C   0  0  0  0  0  0  0  0  0  0  0  0
    0.2210    4.2550   -9.1610 H   0  0  0  0  0  0  0  0  0  0  0  0
    0.2080    2.0220   -2.1110 H   0  0  0  0  0  0  0  0  0  0  0  0
    0.7210   -0.7870   -2.5120 H   0  0  0  0  0  0  0  0  0  0  0  0
    1.9050    0.3510   -1.8250 H   0  0  0  0  0  0  0  0  0  0  0  0
    0.1440    2.9210   -8.3220 H   0  0  0  0  0  0  0  0  0  0  0  0
   -1.2790    2.3840   -7.3980 H   0  0  0  0  0  0  0  0  0  0  0  0
   -2.1550    3.8280   -5.6260 H   0  0  0  0  0  0  0  0  0  0  0  0
   -1.3490    5.3820   -5.3040 H   0  0  0  0  0  0  0  0  0  0  0  0
    1.6160    0.7890   -4.3670 H   0  0  0  0  0  0  0  0  0  0  0  0
    1.8380    2.4050   -3.6530 H   0  0  0  0  0  0  0  0  0  0  0  0
   -1.8740    1.6500   -2.7120 H   0  0  0  0  0  0  0  0  0  0  0  0
   -1.4570   -0.0510   -3.0260 H   0  0  0  0  0  0  0  0  0  0  0  0
    0.6670    1.1560   -6.6740 H   0  0  0  0  0  0  0  0  0  0  0  0
    1.5570    2.6710   -6.3880 H   0  0  0  0  0  0  0  0  0  0  0  0
    0.5920    4.2570   -4.4490 H   0  0  0  0  0  0  0  0  0  0  0  0
   -0.8590    3.6610   -3.6080 H   0  0  0  0  0  0  0  0  0  0  0  0
    0.3440    1.3550    3.0880 H   0  0  0  0  0  0  0  0  0  0  0  0
   -0.2070   -0.2810    3.5220 H   0  0  0  0  0  0  0  0  0  0  0  0
   -1.3950    0.9770    3.1050 H   0  0  0  0  0  0  0  0  0  0  0  0
   -0.9650    0.3530   -5.2860 H   0  0  0  0  0  0  0  0  0  0  0  0
   -2.0520    1.7440   -5.0530 H   0  0  0  0  0  0  0  0  0  0  0  0
   -1.1780   -1.8100   -2.1160 H   0  0  0  0  0  0  0  0  0  0  0  0
   -2.6350   -1.5940   -1.1170 H   0  0  0  0  0  0  0  0  0  0  0  0
   -1.4480   -2.8530   -0.7000 H   0  0  0  0  0  0  0  0  0  0  0  0
    0.1510    7.9030   -8.8610 H   0  0  0  0  0  0  0  0  0  0  0  0
    1.6760    5.9740  -13.1590 H   0  0  0  0  0  0  0  0  0  0  0  0
    1.3750    2.4970  -12.3880 H   0  0  0  0  0  0  0  0  0  0  0  0
    2.4360    3.8960  -12.6800 H   0  0  0  0  0  0  0  0  0  0  0  0
    0.7610    3.9090  -13.2810 H   0  0  0  0  0  0  0  0  0  0  0  0
    0.8280    9.3880  -10.7180 H   0  0  0  0  0  0  0  0  0  0  0  0
    1.5870    8.4270  -12.8620 H   0  0  0  0  0  0  0  0  0  0  0  0
  1  2  2  0  0  0  0
  1  6  1  0  0  0  0
  1 10  1  0  0  0  0
  2  3  1  0  0  0  0
  2 16  1  0  0  0  0
  3  4  1  0  0  0  0
  3 22  1  0  0  0  0
  4  6  2  0  0  0  0
  5  7  1  0  0  0  0
  5  8  1  0  0  0  0
  5 13  2  0  0  0  0
  6 24  1  0  0  0  0
  7 14  1  0  0  0  0
  7 15  1  0  0  0  0
  8 11  1  0  0  0  0
  8 31  1  0  0  0  0
  9 10  1  0  0  0  0
  9 17  1  0  0  0  0
  9 19  1  0  0  0  0
  9 32  1  0  0  0  0
 10 33  1  0  0  0  0
 10 34  1  0  0  0  0
 11 18  2  0  0  0  0
 11 26  1  0  0  0  0
 12 17  1  0  0  0  0
 12 20  1  0  0  0  0
 12 21  1  0  0  0  0
 12 23  1  0  0  0  0
 14 20  1  0  0  0  0
 14 35  1  0  0  0  0
 14 36  1  0  0  0  0
 15 21  1  0  0  0  0
 15 37  1  0  0  0  0
 15 38  1  0  0  0  0
 17 39  1  0  0  0  0
 17 40  1  0  0  0  0
 18 25  1  0  0  0  0
 18 27  1  0  0  0  0
 19 23  1  0  0  0  0
 19 41  1  0  0  0  0
 19 42  1  0  0  0  0
 20 43  1  0  0  0  0
 20 44  1  0  0  0  0
 21 45  1  0  0  0  0
 21 46  1  0  0  0  0
 22 47  1  0  0  0  0
 22 48  1  0  0  0  0
 22 49  1  0  0  0  0
 23 50  1  0  0  0  0
 23 51  1  0  0  0  0
 24 52  1  0  0  0  0
 24 53  1  0  0  0  0
 24 54  1  0  0  0  0
 25 28  1  0  0  0  0
 26 29  2  0  0  0  0
 26 55  1  0  0  0  0
 27 30  2  0  0  0  0
 27 56  1  0  0  0  0
 28 57  1  0  0  0  0
 28 58  1  0  0  0  0
 28 59  1  0  0  0  0
 29 30  1  0  0  0  0
 29 60  1  0  0  0  0
 30 61  1  0  0  0  0
M  CHG  1   9   1
M  END
>  <$CLUSTER>
677

>  <INDEX>
446145

$$$$
Tripos 1559-01221
  MOE2020           3D

 45 46  0  0  1  0  0  0  0  0999 V2000
   -1.7270   -0.1590    0.3230 S   0  0  0  0  0  0  0  0  0  0  0  0
   -2.1450    1.4000    0.7670 N   0  0  0  0  0  0  0  0  0  0  0  0
   -1.6030    1.9540    2.0030 C   0  0  2  0  0  0  0  0  0  0  0  0
    0.0040   -0.0300   -0.0060 C   0  0  0  0  0  0  0  0  0  0  0  0
   -2.2240    1.3180    3.2520 C   0  0  0  0  0  0  0  0  0  0  0  0
    0.4420    0.2930   -1.2940 C   0  0  0  0  0  0  0  0  0  0  0  0
    1.8110    0.3660   -1.5580 C   0  0  0  0  0  0  0  0  0  0  0  0
   -2.4130   -0.4580   -0.9230 O   0  0  0  0  0  0  0  0  0  0  0  0
   -1.9210   -1.0130    1.4810 O   0  0  0  0  0  0  0  0  0  0  0  0
   -1.9000    3.4750    2.0270 C   0  0  0  0  0  0  0  0  0  0  0  0
    2.7330    0.1110   -0.5420 C   0  0  0  0  0  0  0  0  0  0  0  0
   -1.9380    1.6440    4.4160 O   0  0  0  0  0  0  0  0  0  0  0  0
    0.9250   -0.2930    1.0120 C   0  0  0  0  0  0  0  0  0  0  0  0
    2.2920   -0.2180    0.7410 C   0  0  0  0  0  0  0  0  0  0  0  0
    2.3410    0.7680   -3.1250 Cl  0  0  0  0  0  0  0  0  0  0  0  0
   -3.1020    0.3040    3.0410 O   0  0  0  0  0  0  0  0  0  0  0  0
   -1.2760    4.2350    3.1880 C   0  0  0  0  0  0  0  0  0  0  0  0
    4.1990    0.1890   -0.8260 C   0  0  0  0  0  0  0  0  0  0  0  0
   -3.7120   -0.3420    4.0810 C   0  0  0  0  0  0  0  0  0  0  0  0
    0.0180    4.7290    3.0690 C   0  0  0  0  0  0  0  0  0  0  0  0
   -1.9580    4.3220    4.3960 C   0  0  0  0  0  0  0  0  0  0  0  0
   -4.6440   -1.4070    3.5410 C   0  0  0  0  0  0  0  0  0  0  0  0
    0.6100    5.3800    4.1520 C   0  0  0  0  0  0  0  0  0  0  0  0
   -1.3640    4.9740    5.4770 C   0  0  0  0  0  0  0  0  0  0  0  0
   -0.0820    5.5040    5.3540 C   0  0  0  0  0  0  0  0  0  0  0  0
   -1.8530    2.0100    0.0170 H   0  0  0  0  0  0  0  0  0  0  0  0
   -0.5330    1.7480    2.0220 H   0  0  0  0  0  0  0  0  0  0  0  0
   -0.2740    0.4850   -2.0790 H   0  0  0  0  0  0  0  0  0  0  0  0
   -1.5250    3.9070    1.0990 H   0  0  0  0  0  0  0  0  0  0  0  0
   -2.9810    3.6070    2.0780 H   0  0  0  0  0  0  0  0  0  0  0  0
    0.5810   -0.5530    2.0020 H   0  0  0  0  0  0  0  0  0  0  0  0
    3.0090   -0.4150    1.5240 H   0  0  0  0  0  0  0  0  0  0  0  0
    4.7580   -0.0400    0.0820 H   0  0  0  0  0  0  0  0  0  0  0  0
    4.4510    1.1940   -1.1640 H   0  0  0  0  0  0  0  0  0  0  0  0
    4.4570   -0.5310   -1.6030 H   0  0  0  0  0  0  0  0  0  0  0  0
   -2.9560   -0.8080    4.7120 H   0  0  0  0  0  0  0  0  0  0  0  0
   -4.2840    0.3760    4.6690 H   0  0  0  0  0  0  0  0  0  0  0  0
    0.5620    4.6100    2.1440 H   0  0  0  0  0  0  0  0  0  0  0  0
   -2.9420    3.8880    4.4970 H   0  0  0  0  0  0  0  0  0  0  0  0
   -4.0730   -2.1250    2.9530 H   0  0  0  0  0  0  0  0  0  0  0  0
   -5.4010   -0.9410    2.9100 H   0  0  0  0  0  0  0  0  0  0  0  0
   -5.1290   -1.9210    4.3710 H   0  0  0  0  0  0  0  0  0  0  0  0
    1.6060    5.7880    4.0580 H   0  0  0  0  0  0  0  0  0  0  0  0
   -1.8990    5.0680    6.4100 H   0  0  0  0  0  0  0  0  0  0  0  0
    0.3750    6.0110    6.1910 H   0  0  0  0  0  0  0  0  0  0  0  0
  1  2  1  0  0  0  0
  1  4  1  0  0  0  0
  1  8  2  0  0  0  0
  1  9  2  0  0  0  0
  2  3  1  0  0  0  0
  2 26  1  0  0  0  0
  3  5  1  0  0  0  0
  3 10  1  0  0  0  0
  3 27  1  0  0  0  0
  4  6  1  0  0  0  0
  4 13  2  0  0  0  0
  5 12  2  0  0  0  0
  5 16  1  0  0  0  0
  6  7  2  0  0  0  0
  6 28  1  0  0  0  0
  7 11  1  0  0  0  0
  7 15  1  0  0  0  0
 10 17  1  0  0  0  0
 10 29  1  0  0  0  0
 10 30  1  0  0  0  0
 11 14  2  0  0  0  0
 11 18  1  0  0  0  0
 13 14  1  0  0  0  0
 13 31  1  0  0  0  0
 14 32  1  0  0  0  0
 16 19  1  0  0  0  0
 17 20  2  0  0  0  0
 17 21  1  0  0  0  0
 18 33  1  0  0  0  0
 18 34  1  0  0  0  0
 18 35  1  0  0  0  0
 19 22  1  0  0  0  0
 19 36  1  0  0  0  0
 19 37  1  0  0  0  0
 20 23  1  0  0  0  0
 20 38  1  0  0  0  0
 21 24  2  0  0  0  0
 21 39  1  0  0  0  0
 22 40  1  0  0  0  0
 22 41  1  0  0  0  0
 22 42  1  0  0  0  0
 23 25  2  0  0  0  0
 23 43  1  0  0  0  0
 24 25  1  0  0  0  0
 24 44  1  0  0  0  0
 25 45  1  0  0  0  0
M  END
>  <$CLUSTER>
678

>  <INDEX>
473062

$$$$
Life Chemicals F1773-0302
  MOE2020           3D

 46 47  0  0  1  0  0  0  0  0999 V2000
    0.1390    2.9090    0.3580 S   0  0  0  0  0  0  0  0  0  0  0  0
    0.1590    1.2850   -0.0830 N   0  0  0  0  0  0  0  0  0  0  0  0
   -1.4710    3.1340    1.1100 C   0  0  0  0  0  0  0  0  0  0  0  0
    0.5540   -1.1200    0.5200 C   0  0  3  0  0  0  0  0  0  0  0  0
    0.1740    0.2850    1.0120 C   0  0  0  0  0  0  0  0  0  0  0  0
   -2.5420    3.4860    0.3010 C   0  0  0  0  0  0  0  0  0  0  0  0
    0.5310   -2.1240    1.6720 C   0  0  0  0  0  0  0  0  0  0  0  0
    1.1610    3.1060    1.3760 O   0  0  0  0  0  0  0  0  0  0  0  0
    0.1940    3.7000   -0.8660 O   0  0  0  0  0  0  0  0  0  0  0  0
   -3.7920    3.6770    0.8920 C   0  0  0  0  0  0  0  0  0  0  0  0
   -3.9470    3.5120    2.2690 C   0  0  0  0  0  0  0  0  0  0  0  0
   -1.6020    2.9630    2.4780 C   0  0  0  0  0  0  0  0  0  0  0  0
   -0.3550   -2.9230    1.8890 O   0  0  0  0  0  0  0  0  0  0  0  0
   -2.8550    3.1550    3.0610 C   0  0  0  0  0  0  0  0  0  0  0  0
   -0.7630    0.8590   -1.1620 C   0  0  0  0  0  0  0  0  0  0  0  0
    1.6290   -1.9660    2.4470 O   0  0  0  0  0  0  0  0  0  0  0  0
   -5.6240    3.7560    3.1340 Br  0  0  0  0  0  0  0  0  0  0  0  0
   -4.9480    4.0360    0.1720 O   0  0  0  0  0  0  0  0  0  0  0  0
   -0.3790   -1.5700   -0.6070 C   0  0  0  0  0  0  0  0  0  0  0  0
   -0.4150   -0.5230   -1.7110 C   0  0  0  0  0  0  0  0  0  0  0  0
    1.7550   -2.8290    3.5740 C   0  0  0  0  0  0  0  0  0  0  0  0
   -4.8010    4.2080   -1.2430 C   0  0  0  0  0  0  0  0  0  0  0  0
    3.0450   -2.5070    4.3010 C   0  0  0  0  0  0  0  0  0  0  0  0
   -6.0890    4.5820   -1.8640 C   0  0  0  0  0  0  0  0  0  0  0  0
    1.5700   -1.0780    0.1270 H   0  0  0  0  0  0  0  0  0  0  0  0
   -0.8190    0.2420    1.4600 H   0  0  0  0  0  0  0  0  0  0  0  0
    0.8980    0.6000    1.7630 H   0  0  0  0  0  0  0  0  0  0  0  0
   -2.4110    3.6100   -0.7640 H   0  0  0  0  0  0  0  0  0  0  0  0
   -0.7510    2.6860    3.0820 H   0  0  0  0  0  0  0  0  0  0  0  0
   -2.9800    3.0270    4.1260 H   0  0  0  0  0  0  0  0  0  0  0  0
   -0.7090    1.5830   -1.9750 H   0  0  0  0  0  0  0  0  0  0  0  0
   -1.7780    0.8330   -0.7660 H   0  0  0  0  0  0  0  0  0  0  0  0
   -1.3840   -1.7070   -0.2090 H   0  0  0  0  0  0  0  0  0  0  0  0
   -0.0190   -2.5130   -1.0170 H   0  0  0  0  0  0  0  0  0  0  0  0
    0.5640   -0.4780   -2.1880 H   0  0  0  0  0  0  0  0  0  0  0  0
   -1.1650   -0.8110   -2.4470 H   0  0  0  0  0  0  0  0  0  0  0  0
    1.7730   -3.8660    3.2400 H   0  0  0  0  0  0  0  0  0  0  0  0
    0.9100   -2.6790    4.2460 H   0  0  0  0  0  0  0  0  0  0  0  0
   -4.4510    3.2740   -1.6820 H   0  0  0  0  0  0  0  0  0  0  0  0
   -4.0710    4.9950   -1.4330 H   0  0  0  0  0  0  0  0  0  0  0  0
    3.8890   -2.6580    3.6280 H   0  0  0  0  0  0  0  0  0  0  0  0
    3.1480   -3.1630    5.1660 H   0  0  0  0  0  0  0  0  0  0  0  0
    3.0260   -1.4690    4.6320 H   0  0  0  0  0  0  0  0  0  0  0  0
   -6.8230    3.7990   -1.6770 H   0  0  0  0  0  0  0  0  0  0  0  0
   -5.9530    4.7030   -2.9390 H   0  0  0  0  0  0  0  0  0  0  0  0
   -6.4410    5.5200   -1.4340 H   0  0  0  0  0  0  0  0  0  0  0  0
  1  2  1  0  0  0  0
  1  3  1  0  0  0  0
  1  8  2  0  0  0  0
  1  9  2  0  0  0  0
  2  5  1  0  0  0  0
  2 15  1  0  0  0  0
  3  6  1  0  0  0  0
  3 12  2  0  0  0  0
  4  5  1  0  0  0  0
  4  7  1  0  0  0  0
  4 19  1  0  0  0  0
  4 25  1  0  0  0  0
  5 26  1  0  0  0  0
  5 27  1  0  0  0  0
  6 10  2  0  0  0  0
  6 28  1  0  0  0  0
  7 13  2  0  0  0  0
  7 16  1  0  0  0  0
 10 11  1  0  0  0  0
 10 18  1  0  0  0  0
 11 14  2  0  0  0  0
 11 17  1  0  0  0  0
 12 14  1  0  0  0  0
 12 29  1  0  0  0  0
 14 30  1  0  0  0  0
 15 20  1  0  0  0  0
 15 31  1  0  0  0  0
 15 32  1  0  0  0  0
 16 21  1  0  0  0  0
 18 22  1  0  0  0  0
 19 20  1  0  0  0  0
 19 33  1  0  0  0  0
 19 34  1  0  0  0  0
 20 35  1  0  0  0  0
 20 36  1  0  0  0  0
 21 23  1  0  0  0  0
 21 37  1  0  0  0  0
 21 38  1  0  0  0  0
 22 24  1  0  0  0  0
 22 39  1  0  0  0  0
 22 40  1  0  0  0  0
 23 41  1  0  0  0  0
 23 42  1  0  0  0  0
 23 43  1  0  0  0  0
 24 44  1  0  0  0  0
 24 45  1  0  0  0  0
 24 46  1  0  0  0  0
M  END
>  <$CLUSTER>
679

>  <INDEX>
296533

$$$$
Tripos 1526-13160
  MOE2020           3D

 44 46  0  0  0  0  0  0  0  0999 V2000
   -1.9240    1.6180   -2.1450 C   0  0  0  0  0  0  0  0  0  0  0  0
   -1.3280    1.1100   -1.0270 N   0  0  0  0  0  0  0  0  0  0  0  0
   -1.5530    2.8720   -2.5120 N   0  0  0  0  0  0  0  0  0  0  0  0
    0.6410   -0.5630    0.3540 C   0  0  0  0  0  0  0  0  0  0  0  0
   -1.7180    3.9090   -3.4280 C   0  0  0  0  0  0  0  0  0  0  0  0
   -0.6330   -1.1400   -0.2770 C   0  0  0  0  0  0  0  0  0  0  0  0
    1.0140    0.7580   -0.3200 C   0  0  0  0  0  0  0  0  0  0  0  0
   -2.6110    3.7760   -4.4940 C   0  0  0  0  0  0  0  0  0  0  0  0
   -3.0680    0.8410   -3.0940 S   0  0  0  0  0  0  0  0  0  0  0  0
   -0.1700    1.7170   -0.3600 C   0  0  0  0  0  0  0  0  0  0  0  0
   -1.7510   -0.1040   -0.3200 C   0  0  0  0  0  0  0  0  0  0  0  0
    0.4840   -0.3260    1.7490 O   0  0  0  0  0  0  0  0  0  0  0  0
    1.7420   -1.4520    0.2000 O   0  0  0  0  0  0  0  0  0  0  0  0
   -0.9900    5.1210   -3.3030 C   0  0  0  0  0  0  0  0  0  0  0  0
   -1.1700    6.1550   -4.2390 C   0  0  0  0  0  0  0  0  0  0  0  0
   -2.7850    4.8100   -5.4190 C   0  0  0  0  0  0  0  0  0  0  0  0
   -2.0680    5.9950   -5.2930 C   0  0  0  0  0  0  0  0  0  0  0  0
   -3.8800    4.6260   -6.7130 Cl  0  0  0  0  0  0  0  0  0  0  0  0
   -0.1120    5.1980   -2.2190 O   0  0  0  0  0  0  0  0  0  0  0  0
    2.6320   -1.0690    2.3450 C   0  0  0  0  0  0  0  0  0  0  0  0
    2.9280   -1.2400    0.8650 C   0  0  0  0  0  0  0  0  0  0  0  0
    1.5570   -0.0120    2.5420 C   0  0  0  0  0  0  0  0  0  0  0  0
    0.6350    6.4110   -2.0740 C   0  0  0  0  0  0  0  0  0  0  0  0
   -0.8700    3.1840   -1.8370 H   0  0  0  0  0  0  0  0  0  0  0  0
   -0.9640   -1.9950    0.3120 H   0  0  0  0  0  0  0  0  0  0  0  0
   -0.4100   -1.4640   -1.2940 H   0  0  0  0  0  0  0  0  0  0  0  0
    1.3410    0.5560   -1.3400 H   0  0  0  0  0  0  0  0  0  0  0  0
    1.8280    1.2230    0.2370 H   0  0  0  0  0  0  0  0  0  0  0  0
   -3.1750    2.8620   -4.6050 H   0  0  0  0  0  0  0  0  0  0  0  0
   -0.4470    1.9820    0.6610 H   0  0  0  0  0  0  0  0  0  0  0  0
    0.1200    2.6170   -0.9020 H   0  0  0  0  0  0  0  0  0  0  0  0
   -2.6120   -0.5320   -0.8340 H   0  0  0  0  0  0  0  0  0  0  0  0
   -2.0310    0.1590    0.7000 H   0  0  0  0  0  0  0  0  0  0  0  0
   -0.6120    7.0740   -4.1410 H   0  0  0  0  0  0  0  0  0  0  0  0
   -2.2070    6.7900   -6.0110 H   0  0  0  0  0  0  0  0  0  0  0  0
    3.5410   -0.7600    2.8610 H   0  0  0  0  0  0  0  0  0  0  0  0
    2.2850   -2.0170    2.7560 H   0  0  0  0  0  0  0  0  0  0  0  0
    3.4080   -0.3400    0.4810 H   0  0  0  0  0  0  0  0  0  0  0  0
    3.5880   -2.0950    0.7190 H   0  0  0  0  0  0  0  0  0  0  0  0
    1.2480    0.0070    3.5870 H   0  0  0  0  0  0  0  0  0  0  0  0
    1.9480    0.9660    2.2610 H   0  0  0  0  0  0  0  0  0  0  0  0
    1.2770    6.3400   -1.1960 H   0  0  0  0  0  0  0  0  0  0  0  0
   -0.0520    7.2490   -1.9550 H   0  0  0  0  0  0  0  0  0  0  0  0
    1.2490    6.5680   -2.9610 H   0  0  0  0  0  0  0  0  0  0  0  0
  1  2  1  0  0  0  0
  1  3  1  0  0  0  0
  1  9  2  0  0  0  0
  2 10  1  0  0  0  0
  2 11  1  0  0  0  0
  3  5  1  0  0  0  0
  3 24  1  0  0  0  0
  4  6  1  0  0  0  0
  4  7  1  0  0  0  0
  4 12  1  0  0  0  0
  4 13  1  0  0  0  0
  5  8  1  0  0  0  0
  5 14  2  0  0  0  0
  6 11  1  0  0  0  0
  6 25  1  0  0  0  0
  6 26  1  0  0  0  0
  7 10  1  0  0  0  0
  7 27  1  0  0  0  0
  7 28  1  0  0  0  0
  8 16  2  0  0  0  0
  8 29  1  0  0  0  0
 10 30  1  0  0  0  0
 10 31  1  0  0  0  0
 11 32  1  0  0  0  0
 11 33  1  0  0  0  0
 12 22  1  0  0  0  0
 13 21  1  0  0  0  0
 14 15  1  0  0  0  0
 14 19  1  0  0  0  0
 15 17  2  0  0  0  0
 15 34  1  0  0  0  0
 16 17  1  0  0  0  0
 16 18  1  0  0  0  0
 17 35  1  0  0  0  0
 19 23  1  0  0  0  0
 20 21  1  0  0  0  0
 20 22  1  0  0  0  0
 20 36  1  0  0  0  0
 20 37  1  0  0  0  0
 21 38  1  0  0  0  0
 21 39  1  0  0  0  0
 22 40  1  0  0  0  0
 22 41  1  0  0  0  0
 23 42  1  0  0  0  0
 23 43  1  0  0  0  0
 23 44  1  0  0  0  0
M  END
>  <$CLUSTER>
680

>  <INDEX>
448113

$$$$
Tripos 1526-13478
  MOE2020           3D

 56 57  0  0  0  0  0  0  0  0999 V2000
    1.4240    1.5660    1.1640 C   0  0  0  0  0  0  0  0  0  0  0  0
    1.1410    0.3840    0.5430 N   0  0  0  0  0  0  0  0  0  0  0  0
   -0.0380   -0.1580   -0.0230 C   0  0  0  0  0  0  0  0  0  0  0  0
    4.4100   -1.4960    4.8680 C   0  0  0  0  0  0  0  0  0  0  0  0
    2.6530    1.5520    1.7470 N   0  0  0  0  0  0  0  0  0  0  0  0
    3.3810   -0.7150    2.6890 C   0  0  0  0  0  0  0  0  0  0  0  0
    4.1960   -0.6330    3.7640 N   0  0  0  0  0  0  0  0  0  0  0  0
   -1.3170    0.3480    0.2430 C   0  0  0  0  0  0  0  0  0  0  0  0
    0.0770   -1.3000   -0.8590 C   0  0  0  0  0  0  0  0  0  0  0  0
   -1.0840   -1.8710   -1.4140 C   0  0  0  0  0  0  0  0  0  0  0  0
   -2.4580   -0.2300   -0.3190 C   0  0  0  0  0  0  0  0  0  0  0  0
   -2.3420   -1.3370   -1.1510 C   0  0  0  0  0  0  0  0  0  0  0  0
    0.5360    2.9760    1.2600 S   0  0  0  0  0  0  0  0  0  0  0  0
    3.6410    0.3480    1.6320 C   0  0  0  0  0  0  0  0  0  0  0  0
    2.4770   -1.5360    2.5950 O   0  0  0  0  0  0  0  0  0  0  0  0
    4.8310   -0.9170    6.0960 C   0  0  0  0  0  0  0  0  0  0  0  0
    4.2300   -2.8970    4.7960 C   0  0  0  0  0  0  0  0  0  0  0  0
    3.2950    2.6060    2.6180 C   0  0  0  0  0  0  0  0  0  0  0  0
    4.7340   -3.0860    7.1780 C   0  0  0  0  0  0  0  0  0  0  0  0
    1.4070   -1.9310   -1.1910 C   0  0  0  0  0  0  0  0  0  0  0  0
   -3.5600   -1.9480   -1.7590 C   0  0  0  0  0  0  0  0  0  0  0  0
   -3.8070    0.3440   -0.0230 C   0  0  0  0  0  0  0  0  0  0  0  0
    4.9850   -1.7230    7.2360 C   0  0  0  0  0  0  0  0  0  0  0  0
    4.3650   -3.6650    5.9700 C   0  0  0  0  0  0  0  0  0  0  0  0
    5.0950    0.5610    6.2390 C   0  0  0  0  0  0  0  0  0  0  0  0
    3.9710   -3.6720    3.5330 C   0  0  0  0  0  0  0  0  0  0  0  0
    4.1630    3.5670    1.8180 C   0  0  0  0  0  0  0  0  0  0  0  0
    1.9380   -0.2320    0.4730 H   0  0  0  0  0  0  0  0  0  0  0  0
    4.7610    0.2040    3.7850 H   0  0  0  0  0  0  0  0  0  0  0  0
   -1.4230    1.2020    0.8960 H   0  0  0  0  0  0  0  0  0  0  0  0
   -0.9970   -2.7370   -2.0540 H   0  0  0  0  0  0  0  0  0  0  0  0
    4.6600    0.7180    1.7500 H   0  0  0  0  0  0  0  0  0  0  0  0
    3.5300   -0.1030    0.6460 H   0  0  0  0  0  0  0  0  0  0  0  0
    3.9160    2.1120    3.3650 H   0  0  0  0  0  0  0  0  0  0  0  0
    2.5100    3.1750    3.1160 H   0  0  0  0  0  0  0  0  0  0  0  0
    4.8250   -3.6930    8.0660 H   0  0  0  0  0  0  0  0  0  0  0  0
    2.2050   -1.3810   -0.6910 H   0  0  0  0  0  0  0  0  0  0  0  0
    1.5650   -1.9000   -2.2690 H   0  0  0  0  0  0  0  0  0  0  0  0
    1.4120   -2.9670   -0.8520 H   0  0  0  0  0  0  0  0  0  0  0  0
   -3.2700   -2.7990   -2.3750 H   0  0  0  0  0  0  0  0  0  0  0  0
   -4.0680   -1.2080   -2.3770 H   0  0  0  0  0  0  0  0  0  0  0  0
   -4.2310   -2.2840   -0.9690 H   0  0  0  0  0  0  0  0  0  0  0  0
   -3.6990    1.2010    0.6420 H   0  0  0  0  0  0  0  0  0  0  0  0
   -4.4270   -0.4130    0.4580 H   0  0  0  0  0  0  0  0  0  0  0  0
   -4.2780    0.6620   -0.9530 H   0  0  0  0  0  0  0  0  0  0  0  0
    5.3020   -1.2770    8.1670 H   0  0  0  0  0  0  0  0  0  0  0  0
    4.1770   -4.7280    5.9300 H   0  0  0  0  0  0  0  0  0  0  0  0
    4.9360    1.0530    5.2790 H   0  0  0  0  0  0  0  0  0  0  0  0
    6.1250    0.7170    6.5610 H   0  0  0  0  0  0  0  0  0  0  0  0
    4.4150    0.9820    6.9800 H   0  0  0  0  0  0  0  0  0  0  0  0
    3.8850   -2.9810    2.6940 H   0  0  0  0  0  0  0  0  0  0  0  0
    3.0440   -4.2360    3.6360 H   0  0  0  0  0  0  0  0  0  0  0  0
    4.7970   -4.3600    3.3530 H   0  0  0  0  0  0  0  0  0  0  0  0
    4.9530    3.0100    1.3140 H   0  0  0  0  0  0  0  0  0  0  0  0
    4.6080    4.3010    2.4900 H   0  0  0  0  0  0  0  0  0  0  0  0
    3.5500    4.0790    1.0760 H   0  0  0  0  0  0  0  0  0  0  0  0
  1  2  1  0  0  0  0
  1  5  1  0  0  0  0
  1 13  2  0  0  0  0
  2  3  1  0  0  0  0
  2 28  1  0  0  0  0
  3  8  1  0  0  0  0
  3  9  2  0  0  0  0
  4  7  1  0  0  0  0
  4 16  2  0  0  0  0
  4 17  1  0  0  0  0
  5 14  1  0  0  0  0
  5 18  1  0  0  0  0
  6  7  1  0  0  0  0
  6 14  1  0  0  0  0
  6 15  2  0  0  0  0
  7 29  1  0  0  0  0
  8 11  2  0  0  0  0
  8 30  1  0  0  0  0
  9 10  1  0  0  0  0
  9 20  1  0  0  0  0
 10 12  2  0  0  0  0
 10 31  1  0  0  0  0
 11 12  1  0  0  0  0
 11 22  1  0  0  0  0
 12 21  1  0  0  0  0
 14 32  1  0  0  0  0
 14 33  1  0  0  0  0
 16 23  1  0  0  0  0
 16 25  1  0  0  0  0
 17 24  2  0  0  0  0
 17 26  1  0  0  0  0
 18 27  1  0  0  0  0
 18 34  1  0  0  0  0
 18 35  1  0  0  0  0
 19 23  2  0  0  0  0
 19 24  1  0  0  0  0
 19 36  1  0  0  0  0
 20 37  1  0  0  0  0
 20 38  1  0  0  0  0
 20 39  1  0  0  0  0
 21 40  1  0  0  0  0
 21 41  1  0  0  0  0
 21 42  1  0  0  0  0
 22 43  1  0  0  0  0
 22 44  1  0  0  0  0
 22 45  1  0  0  0  0
 23 46  1  0  0  0  0
 24 47  1  0  0  0  0
 25 48  1  0  0  0  0
 25 49  1  0  0  0  0
 25 50  1  0  0  0  0
 26 51  1  0  0  0  0
 26 52  1  0  0  0  0
 26 53  1  0  0  0  0
 27 54  1  0  0  0  0
 27 55  1  0  0  0  0
 27 56  1  0  0  0  0
M  END
>  <$CLUSTER>
681

>  <INDEX>
448148

$$$$
Comgenex CGX-3120872
  MOE2020           3D

 52 53  0  0  0  0  0  0  0  0999 V2000
    4.8890   -0.7640   -0.7340 C   0  0  0  0  0  0  0  0  0  0  0  0
   -0.5470    0.0710   -0.0220 C   0  0  0  0  0  0  0  0  0  0  0  0
   -1.7080   -0.5710   -0.2250 N   0  0  0  0  0  0  0  0  0  0  0  0
   -0.6390    0.9190    1.1100 C   0  0  0  0  0  0  0  0  0  0  0  0
    0.5360   -0.1400   -0.8650 N   0  0  0  0  0  0  0  0  0  0  0  0
    1.7740    0.4690   -0.7440 C   0  0  0  0  0  0  0  0  0  0  0  0
    3.6610   -1.0290   -1.3480 N   0  0  0  0  0  0  0  0  0  0  0  0
    5.1820    0.5610   -0.5020 N   0  0  0  0  0  0  0  0  0  0  0  0
   -2.5630   -0.1430    0.7750 O   0  0  0  0  0  0  0  0  0  0  0  0
   -1.9180    0.7450    1.5670 C   0  0  0  0  0  0  0  0  0  0  0  0
    2.7200    0.0140   -1.8260 C   0  0  0  0  0  0  0  0  0  0  0  0
    8.4350    1.2390    1.1280 C   0  0  0  0  0  0  0  0  0  0  0  0
    5.6850   -1.6470   -0.4030 O   0  0  0  0  0  0  0  0  0  0  0  0
    6.2550    1.2160    0.0640 C   0  0  0  0  0  0  0  0  0  0  0  0
    7.3690    0.5320    0.5610 C   0  0  0  0  0  0  0  0  0  0  0  0
    8.4000    2.6290    1.2020 C   0  0  0  0  0  0  0  0  0  0  0  0
    2.1250    1.2820    0.1060 O   0  0  0  0  0  0  0  0  0  0  0  0
    7.2970    3.3190    0.7100 C   0  0  0  0  0  0  0  0  0  0  0  0
    6.2300    2.6170    0.1440 C   0  0  0  0  0  0  0  0  0  0  0  0
    3.2400   -2.4170   -1.5350 C   0  0  0  0  0  0  0  0  0  0  0  0
   -2.5530    1.3450    2.6700 C   0  0  0  0  0  0  0  0  0  0  0  0
    9.6190    0.4900    1.6550 C   0  0  0  0  0  0  0  0  0  0  0  0
    9.5410    3.3770    1.8080 C   0  0  0  0  0  0  0  0  0  0  0  0
    3.6680   -2.9540   -2.8910 C   0  0  0  0  0  0  0  0  0  0  0  0
    3.2250   -4.3880   -3.0970 C   0  0  0  0  0  0  0  0  0  0  0  0
    3.6540   -4.9250   -4.4550 C   0  0  0  0  0  0  0  0  0  0  0  0
    0.1280    1.5590    1.5200 H   0  0  0  0  0  0  0  0  0  0  0  0
    0.4110   -0.7900   -1.6280 H   0  0  0  0  0  0  0  0  0  0  0  0
    4.4540    1.1880   -0.8130 H   0  0  0  0  0  0  0  0  0  0  0  0
    3.2950    0.8730   -2.1730 H   0  0  0  0  0  0  0  0  0  0  0  0
    2.1380   -0.3920   -2.6530 H   0  0  0  0  0  0  0  0  0  0  0  0
    7.4070   -0.5460    0.5070 H   0  0  0  0  0  0  0  0  0  0  0  0
    7.2650    4.3970    0.7660 H   0  0  0  0  0  0  0  0  0  0  0  0
    5.3760    3.1580   -0.2360 H   0  0  0  0  0  0  0  0  0  0  0  0
    2.1540   -2.4700   -1.4600 H   0  0  0  0  0  0  0  0  0  0  0  0
    3.6880   -3.0310   -0.7540 H   0  0  0  0  0  0  0  0  0  0  0  0
   -1.8570    2.0220    3.1660 H   0  0  0  0  0  0  0  0  0  0  0  0
   -2.8700    0.5730    3.3710 H   0  0  0  0  0  0  0  0  0  0  0  0
   -3.4230    1.9050    2.3280 H   0  0  0  0  0  0  0  0  0  0  0  0
    9.4660   -0.5800    1.5110 H   0  0  0  0  0  0  0  0  0  0  0  0
    9.7380    0.7000    2.7180 H   0  0  0  0  0  0  0  0  0  0  0  0
   10.5150    0.8040    1.1200 H   0  0  0  0  0  0  0  0  0  0  0  0
   10.3060    2.6720    2.1340 H   0  0  0  0  0  0  0  0  0  0  0  0
    9.1860    3.9500    2.6650 H   0  0  0  0  0  0  0  0  0  0  0  0
    9.9650    4.0560    1.0680 H   0  0  0  0  0  0  0  0  0  0  0  0
    4.7550   -2.9070   -2.9610 H   0  0  0  0  0  0  0  0  0  0  0  0
    3.2270   -2.3330   -3.6710 H   0  0  0  0  0  0  0  0  0  0  0  0
    2.1380   -4.4350   -3.0270 H   0  0  0  0  0  0  0  0  0  0  0  0
    3.6660   -5.0090   -2.3170 H   0  0  0  0  0  0  0  0  0  0  0  0
    3.2180   -4.3110   -5.2430 H   0  0  0  0  0  0  0  0  0  0  0  0
    3.3110   -5.9540   -4.5640 H   0  0  0  0  0  0  0  0  0  0  0  0
    4.7410   -4.8950   -4.5310 H   0  0  0  0  0  0  0  0  0  0  0  0
  1  7  1  0  0  0  0
  1  8  1  0  0  0  0
  1 13  2  0  0  0  0
  2  3  2  0  0  0  0
  2  4  1  0  0  0  0
  2  5  1  0  0  0  0
  3  9  1  0  0  0  0
  4 10  2  0  0  0  0
  4 27  1  0  0  0  0
  5  6  1  0  0  0  0
  5 28  1  0  0  0  0
  6 11  1  0  0  0  0
  6 17  2  0  0  0  0
  7 11  1  0  0  0  0
  7 20  1  0  0  0  0
  8 14  1  0  0  0  0
  8 29  1  0  0  0  0
  9 10  1  0  0  0  0
 10 21  1  0  0  0  0
 11 30  1  0  0  0  0
 11 31  1  0  0  0  0
 12 15  2  0  0  0  0
 12 16  1  0  0  0  0
 12 22  1  0  0  0  0
 14 15  1  0  0  0  0
 14 19  2  0  0  0  0
 15 32  1  0  0  0  0
 16 18  2  0  0  0  0
 16 23  1  0  0  0  0
 18 19  1  0  0  0  0
 18 33  1  0  0  0  0
 19 34  1  0  0  0  0
 20 24  1  0  0  0  0
 20 35  1  0  0  0  0
 20 36  1  0  0  0  0
 21 37  1  0  0  0  0
 21 38  1  0  0  0  0
 21 39  1  0  0  0  0
 22 40  1  0  0  0  0
 22 41  1  0  0  0  0
 22 42  1  0  0  0  0
 23 43  1  0  0  0  0
 23 44  1  0  0  0  0
 23 45  1  0  0  0  0
 24 25  1  0  0  0  0
 24 46  1  0  0  0  0
 24 47  1  0  0  0  0
 25 26  1  0  0  0  0
 25 48  1  0  0  0  0
 25 49  1  0  0  0  0
 26 50  1  0  0  0  0
 26 51  1  0  0  0  0
 26 52  1  0  0  0  0
M  END
>  <$CLUSTER>
682

>  <INDEX>
259414

$$$$
Tripos 1526-22023
  MOE2020           3D

 49 50  0  0  0  0  0  0  0  0999 V2000
    2.3330   -2.6960   -0.4950 C   0  0  0  0  0  0  0  0  0  0  0  0
   -1.1630    1.3380    0.4970 N   0  0  0  0  0  0  0  0  0  0  0  0
   -1.4410    2.6290    0.7890 C   0  0  0  0  0  0  0  0  0  0  0  0
    3.6150   -2.8430   -0.9050 N   0  0  0  0  0  0  0  0  0  0  0  0
    4.5220   -2.0940   -1.7180 C   0  0  0  0  0  0  0  0  0  0  0  0
    1.8860   -1.4190   -0.6350 N   0  0  0  0  0  0  0  0  0  0  0  0
    5.9200   -2.3080   -1.6440 C   0  0  0  0  0  0  0  0  0  0  0  0
    1.4890   -4.0050    0.0980 S   0  0  0  0  0  0  0  0  0  0  0  0
   -0.8030    0.2860    1.4560 C   0  0  0  0  0  0  0  0  0  0  0  0
   -1.1890    0.8160   -0.8750 C   0  0  0  0  0  0  0  0  0  0  0  0
   -1.7400    3.5000   -0.0230 O   0  0  0  0  0  0  0  0  0  0  0  0
    6.7740   -1.5690   -2.4840 C   0  0  0  0  0  0  0  0  0  0  0  0
    4.0250   -1.1770   -2.6550 C   0  0  0  0  0  0  0  0  0  0  0  0
    0.1530    0.2080   -1.2790 C   0  0  0  0  0  0  0  0  0  0  0  0
    0.5520   -0.3410    1.1330 C   0  0  0  0  0  0  0  0  0  0  0  0
    0.5640   -0.8880   -0.2950 C   0  0  0  0  0  0  0  0  0  0  0  0
   -1.3620    2.9150    2.1170 O   0  0  0  0  0  0  0  0  0  0  0  0
    6.2610   -0.6410   -3.3900 C   0  0  0  0  0  0  0  0  0  0  0  0
    4.8870   -0.4490   -3.4780 C   0  0  0  0  0  0  0  0  0  0  0  0
    7.0070    0.1190   -4.2550 O   0  0  0  0  0  0  0  0  0  0  0  0
    6.5350   -3.2970   -0.6860 C   0  0  0  0  0  0  0  0  0  0  0  0
   -1.6300    4.2280    2.5580 C   0  0  0  0  0  0  0  0  0  0  0  0
    8.4190   -0.0450   -4.2090 C   0  0  0  0  0  0  0  0  0  0  0  0
   -1.4780    4.2890    4.0650 C   0  0  0  0  0  0  0  0  0  0  0  0
    4.0340   -3.6900   -0.5490 H   0  0  0  0  0  0  0  0  0  0  0  0
    2.5450   -0.7570   -1.0200 H   0  0  0  0  0  0  0  0  0  0  0  0
   -1.5660   -0.4920    1.4290 H   0  0  0  0  0  0  0  0  0  0  0  0
   -0.7610    0.7200    2.4550 H   0  0  0  0  0  0  0  0  0  0  0  0
   -1.4260    1.6320   -1.5580 H   0  0  0  0  0  0  0  0  0  0  0  0
   -1.9590    0.0480   -0.9450 H   0  0  0  0  0  0  0  0  0  0  0  0
    7.8410   -1.7230   -2.4260 H   0  0  0  0  0  0  0  0  0  0  0  0
    2.9580   -1.0310   -2.7420 H   0  0  0  0  0  0  0  0  0  0  0  0
    0.9130    0.9890   -1.2840 H   0  0  0  0  0  0  0  0  0  0  0  0
    0.0660   -0.2210   -2.2770 H   0  0  0  0  0  0  0  0  0  0  0  0
    0.7450   -1.1560    1.8310 H   0  0  0  0  0  0  0  0  0  0  0  0
    1.3300    0.4160    1.2340 H   0  0  0  0  0  0  0  0  0  0  0  0
   -0.1540   -1.7050   -0.3620 H   0  0  0  0  0  0  0  0  0  0  0  0
    4.4860    0.2640   -4.1830 H   0  0  0  0  0  0  0  0  0  0  0  0
    5.7470   -3.7840   -0.1110 H   0  0  0  0  0  0  0  0  0  0  0  0
    7.2100   -2.7750   -0.0080 H   0  0  0  0  0  0  0  0  0  0  0  0
    7.0930   -4.0470   -1.2470 H   0  0  0  0  0  0  0  0  0  0  0  0
   -2.6480    4.5040    2.2830 H   0  0  0  0  0  0  0  0  0  0  0  0
   -0.9280    4.9190    2.0930 H   0  0  0  0  0  0  0  0  0  0  0  0
    8.8850    0.6130   -4.9420 H   0  0  0  0  0  0  0  0  0  0  0  0
    8.6720   -1.0800   -4.4370 H   0  0  0  0  0  0  0  0  0  0  0  0
    8.7820    0.2060   -3.2120 H   0  0  0  0  0  0  0  0  0  0  0  0
   -2.1810    3.5970    4.5290 H   0  0  0  0  0  0  0  0  0  0  0  0
   -1.6840    5.3020    4.4100 H   0  0  0  0  0  0  0  0  0  0  0  0
   -0.4600    4.0110    4.3390 H   0  0  0  0  0  0  0  0  0  0  0  0
  1  4  1  0  0  0  0
  1  6  1  0  0  0  0
  1  8  2  0  0  0  0
  2  3  1  0  0  0  0
  2  9  1  0  0  0  0
  2 10  1  0  0  0  0
  3 11  2  0  0  0  0
  3 17  1  0  0  0  0
  4  5  1  0  0  0  0
  4 25  1  0  0  0  0
  5  7  2  0  0  0  0
  5 13  1  0  0  0  0
  6 16  1  0  0  0  0
  6 26  1  0  0  0  0
  7 12  1  0  0  0  0
  7 21  1  0  0  0  0
  9 15  1  0  0  0  0
  9 27  1  0  0  0  0
  9 28  1  0  0  0  0
 10 14  1  0  0  0  0
 10 29  1  0  0  0  0
 10 30  1  0  0  0  0
 12 18  2  0  0  0  0
 12 31  1  0  0  0  0
 13 19  2  0  0  0  0
 13 32  1  0  0  0  0
 14 16  1  0  0  0  0
 14 33  1  0  0  0  0
 14 34  1  0  0  0  0
 15 16  1  0  0  0  0
 15 35  1  0  0  0  0
 15 36  1  0  0  0  0
 16 37  1  0  0  0  0
 17 22  1  0  0  0  0
 18 19  1  0  0  0  0
 18 20  1  0  0  0  0
 19 38  1  0  0  0  0
 20 23  1  0  0  0  0
 21 39  1  0  0  0  0
 21 40  1  0  0  0  0
 21 41  1  0  0  0  0
 22 24  1  0  0  0  0
 22 42  1  0  0  0  0
 22 43  1  0  0  0  0
 23 44  1  0  0  0  0
 23 45  1  0  0  0  0
 23 46  1  0  0  0  0
 24 47  1  0  0  0  0
 24 48  1  0  0  0  0
 24 49  1  0  0  0  0
M  END
>  <$CLUSTER>
683

>  <INDEX>
448656

$$$$
Tripos 1527-26767
  MOE2020           3D

 49 50  0  0  1  0  0  0  0  0999 V2000
   -0.4240    1.6880   -2.3920 C   0  0  0  0  0  0  0  0  0  0  0  0
   -0.2490    1.2330   -1.1200 N   0  0  0  0  0  0  0  0  0  0  0  0
    0.6270    1.4610   -3.2560 N   0  0  0  0  0  0  0  0  0  0  0  0
    0.7170   -0.7970   -0.0660 C   0  0  3  0  0  0  0  0  0  0  0  0
    0.8570    1.7500   -4.6040 C   0  0  0  0  0  0  0  0  0  0  0  0
    0.9680    0.6350   -0.5590 C   0  0  0  0  0  0  0  0  0  0  0  0
    1.9870   -1.3940    0.5380 C   0  0  0  0  0  0  0  0  0  0  0  0
   -0.1170    2.4080   -5.3690 C   0  0  0  0  0  0  0  0  0  0  0  0
    2.0770    1.3830   -5.2210 C   0  0  0  0  0  0  0  0  0  0  0  0
    2.2830    1.6840   -6.5800 C   0  0  0  0  0  0  0  0  0  0  0  0
    0.1060    2.6990   -6.7170 C   0  0  0  0  0  0  0  0  0  0  0  0
    1.3030    2.3380   -7.3230 C   0  0  0  0  0  0  0  0  0  0  0  0
   -1.4460    2.2550   -2.7870 O   0  0  0  0  0  0  0  0  0  0  0  0
    2.2160   -1.4990    1.7250 O   0  0  0  0  0  0  0  0  0  0  0  0
    2.8430   -1.7550   -0.4440 O   0  0  0  0  0  0  0  0  0  0  0  0
   -1.3260    1.2730   -0.1260 C   0  0  0  0  0  0  0  0  0  0  0  0
   -0.4320   -0.8240    0.9480 C   0  0  0  0  0  0  0  0  0  0  0  0
   -1.6650   -0.1260    0.3850 C   0  0  0  0  0  0  0  0  0  0  0  0
    3.1750    0.6740   -4.4740 C   0  0  0  0  0  0  0  0  0  0  0  0
    1.5380    2.6510   -8.7640 C   0  0  0  0  0  0  0  0  0  0  0  0
   -0.9500    3.4020   -7.5110 C   0  0  0  0  0  0  0  0  0  0  0  0
    4.0850   -2.3280   -0.0430 C   0  0  0  0  0  0  0  0  0  0  0  0
    4.8920   -2.6730   -1.2780 C   0  0  0  0  0  0  0  0  0  0  0  0
    1.4000    0.9800   -2.8180 H   0  0  0  0  0  0  0  0  0  0  0  0
    0.4320   -1.4080   -0.9230 H   0  0  0  0  0  0  0  0  0  0  0  0
    1.3070    1.2440    0.2790 H   0  0  0  0  0  0  0  0  0  0  0  0
    1.7390    0.6140   -1.3290 H   0  0  0  0  0  0  0  0  0  0  0  0
   -1.0520    2.6940   -4.9100 H   0  0  0  0  0  0  0  0  0  0  0  0
    3.2130    1.4040   -7.0530 H   0  0  0  0  0  0  0  0  0  0  0  0
   -2.2150    1.7090   -0.5830 H   0  0  0  0  0  0  0  0  0  0  0  0
   -1.0100    1.8910    0.7150 H   0  0  0  0  0  0  0  0  0  0  0  0
   -0.1170   -0.3150    1.8590 H   0  0  0  0  0  0  0  0  0  0  0  0
   -0.6810   -1.8600    1.1790 H   0  0  0  0  0  0  0  0  0  0  0  0
   -2.0630   -0.7180   -0.4390 H   0  0  0  0  0  0  0  0  0  0  0  0
   -2.4170   -0.0450    1.1700 H   0  0  0  0  0  0  0  0  0  0  0  0
    2.8670    0.5130   -3.4410 H   0  0  0  0  0  0  0  0  0  0  0  0
    4.0790    1.2830   -4.4930 H   0  0  0  0  0  0  0  0  0  0  0  0
    3.3740   -0.2870   -4.9470 H   0  0  0  0  0  0  0  0  0  0  0  0
    2.5250    2.2930   -9.0570 H   0  0  0  0  0  0  0  0  0  0  0  0
    1.4820    3.7290   -8.9150 H   0  0  0  0  0  0  0  0  0  0  0  0
    0.7780    2.1590   -9.3710 H   0  0  0  0  0  0  0  0  0  0  0  0
   -1.8110    3.6030   -6.8730 H   0  0  0  0  0  0  0  0  0  0  0  0
   -1.2560    2.7720   -8.3460 H   0  0  0  0  0  0  0  0  0  0  0  0
   -0.5520    4.3430   -7.8920 H   0  0  0  0  0  0  0  0  0  0  0  0
    3.9000   -3.2320    0.5370 H   0  0  0  0  0  0  0  0  0  0  0  0
    4.6370   -1.6130    0.5660 H   0  0  0  0  0  0  0  0  0  0  0  0
    4.3380   -3.3880   -1.8860 H   0  0  0  0  0  0  0  0  0  0  0  0
    5.8440   -3.1110   -0.9790 H   0  0  0  0  0  0  0  0  0  0  0  0
    5.0740   -1.7680   -1.8570 H   0  0  0  0  0  0  0  0  0  0  0  0
  1  2  1  0  0  0  0
  1  3  1  0  0  0  0
  1 13  2  0  0  0  0
  2  6  1  0  0  0  0
  2 16  1  0  0  0  0
  3  5  1  0  0  0  0
  3 24  1  0  0  0  0
  4  6  1  0  0  0  0
  4  7  1  0  0  0  0
  4 17  1  0  0  0  0
  4 25  1  0  0  0  0
  5  8  1  0  0  0  0
  5  9  2  0  0  0  0
  6 26  1  0  0  0  0
  6 27  1  0  0  0  0
  7 14  2  0  0  0  0
  7 15  1  0  0  0  0
  8 11  2  0  0  0  0
  8 28  1  0  0  0  0
  9 10  1  0  0  0  0
  9 19  1  0  0  0  0
 10 12  2  0  0  0  0
 10 29  1  0  0  0  0
 11 12  1  0  0  0  0
 11 21  1  0  0  0  0
 12 20  1  0  0  0  0
 15 22  1  0  0  0  0
 16 18  1  0  0  0  0
 16 30  1  0  0  0  0
 16 31  1  0  0  0  0
 17 18  1  0  0  0  0
 17 32  1  0  0  0  0
 17 33  1  0  0  0  0
 18 34  1  0  0  0  0
 18 35  1  0  0  0  0
 19 36  1  0  0  0  0
 19 37  1  0  0  0  0
 19 38  1  0  0  0  0
 20 39  1  0  0  0  0
 20 40  1  0  0  0  0
 20 41  1  0  0  0  0
 21 42  1  0  0  0  0
 21 43  1  0  0  0  0
 21 44  1  0  0  0  0
 22 23  1  0  0  0  0
 22 45  1  0  0  0  0
 22 46  1  0  0  0  0
 23 47  1  0  0  0  0
 23 48  1  0  0  0  0
 23 49  1  0  0  0  0
M  END
>  <$CLUSTER>
684

>  <INDEX>
450400

$$$$
Tripos 1528-07639
  MOE2020           3D

 42 43  0  0  0  0  0  0  0  0999 V2000
   -0.6680    0.5980    1.4540 S   0  0  0  0  0  0  0  0  0  0  0  0
   -0.0650   -0.4790    0.2460 C   0  0  0  0  0  0  0  0  0  0  0  0
    0.7100   -0.0960   -0.8380 C   0  0  0  0  0  0  0  0  0  0  0  0
   -1.5520   -0.3060    2.5970 N   0  0  0  0  0  0  0  0  0  0  0  0
    1.1820    1.2270   -1.2100 C   0  0  0  0  0  0  0  0  0  0  0  0
    1.1000   -1.4740   -1.7980 S   0  0  0  0  0  0  0  0  0  0  0  0
   -0.3360   -1.8760    0.2830 C   0  0  0  0  0  0  0  0  0  0  0  0
   -5.1960   -2.0150    1.3010 C   0  0  0  0  0  0  0  0  0  0  0  0
   -4.0890   -2.8380    1.4980 C   0  0  0  0  0  0  0  0  0  0  0  0
    0.5340    1.1000    2.0870 O   0  0  0  0  0  0  0  0  0  0  0  0
   -1.5810    1.4540    0.7240 O   0  0  0  0  0  0  0  0  0  0  0  0
    0.2430   -2.5350   -0.7760 C   0  0  0  0  0  0  0  0  0  0  0  0
   -5.0930   -0.6420    1.5220 C   0  0  0  0  0  0  0  0  0  0  0  0
   -2.7720   -0.9140    2.1380 C   0  0  0  0  0  0  0  0  0  0  0  0
   -2.8750   -2.2900    1.9170 C   0  0  0  0  0  0  0  0  0  0  0  0
    0.9610    2.2750   -0.6140 O   0  0  0  0  0  0  0  0  0  0  0  0
   -3.8820   -0.0880    1.9400 C   0  0  0  0  0  0  0  0  0  0  0  0
   -6.5650   -2.5820    0.8350 C   0  0  0  0  0  0  0  0  0  0  0  0
    1.9340    1.2040   -2.3450 O   0  0  0  0  0  0  0  0  0  0  0  0
   -4.1310   -4.3420    1.2760 C   0  0  0  0  0  0  0  0  0  0  0  0
   -6.9800   -2.0090   -0.5240 C   0  0  0  0  0  0  0  0  0  0  0  0
   -7.6580   -2.3470    1.8840 C   0  0  0  0  0  0  0  0  0  0  0  0
    2.4670    2.4200   -2.8370 C   0  0  0  0  0  0  0  0  0  0  0  0
   -1.2350   -0.4100    3.5500 H   0  0  0  0  0  0  0  0  0  0  0  0
   -0.9240   -2.3590    1.0490 H   0  0  0  0  0  0  0  0  0  0  0  0
    0.1640   -3.5990   -0.9410 H   0  0  0  0  0  0  0  0  0  0  0  0
   -5.9520   -0.0060    1.3690 H   0  0  0  0  0  0  0  0  0  0  0  0
   -2.0170   -2.9280    2.0700 H   0  0  0  0  0  0  0  0  0  0  0  0
   -3.8030    0.9760    2.1100 H   0  0  0  0  0  0  0  0  0  0  0  0
   -6.4410   -3.6590    0.7180 H   0  0  0  0  0  0  0  0  0  0  0  0
   -5.1300   -4.6340    0.9530 H   0  0  0  0  0  0  0  0  0  0  0  0
   -3.8860   -4.8540    2.2070 H   0  0  0  0  0  0  0  0  0  0  0  0
   -3.4070   -4.6160    0.5090 H   0  0  0  0  0  0  0  0  0  0  0  0
   -7.1120   -0.9300   -0.4390 H   0  0  0  0  0  0  0  0  0  0  0  0
   -7.9180   -2.4660   -0.8400 H   0  0  0  0  0  0  0  0  0  0  0  0
   -6.2060   -2.2230   -1.2600 H   0  0  0  0  0  0  0  0  0  0  0  0
   -7.8040   -1.2760    2.0230 H   0  0  0  0  0  0  0  0  0  0  0  0
   -7.3570   -2.7980    2.8300 H   0  0  0  0  0  0  0  0  0  0  0  0
   -8.5900   -2.8000    1.5450 H   0  0  0  0  0  0  0  0  0  0  0  0
    3.0390    2.2250   -3.7450 H   0  0  0  0  0  0  0  0  0  0  0  0
    3.1200    2.8620   -2.0840 H   0  0  0  0  0  0  0  0  0  0  0  0
    1.6530    3.1090   -3.0610 H   0  0  0  0  0  0  0  0  0  0  0  0
  1  2  1  0  0  0  0
  1  4  1  0  0  0  0
  1 10  2  0  0  0  0
  1 11  2  0  0  0  0
  2  3  2  0  0  0  0
  2  7  1  0  0  0  0
  3  5  1  0  0  0  0
  3  6  1  0  0  0  0
  4 14  1  0  0  0  0
  4 24  1  0  0  0  0
  5 16  2  0  0  0  0
  5 19  1  0  0  0  0
  6 12  1  0  0  0  0
  7 12  2  0  0  0  0
  7 25  1  0  0  0  0
  8  9  2  0  0  0  0
  8 13  1  0  0  0  0
  8 18  1  0  0  0  0
  9 15  1  0  0  0  0
  9 20  1  0  0  0  0
 12 26  1  0  0  0  0
 13 17  2  0  0  0  0
 13 27  1  0  0  0  0
 14 15  2  0  0  0  0
 14 17  1  0  0  0  0
 15 28  1  0  0  0  0
 17 29  1  0  0  0  0
 18 21  1  0  0  0  0
 18 22  1  0  0  0  0
 18 30  1  0  0  0  0
 19 23  1  0  0  0  0
 20 31  1  0  0  0  0
 20 32  1  0  0  0  0
 20 33  1  0  0  0  0
 21 34  1  0  0  0  0
 21 35  1  0  0  0  0
 21 36  1  0  0  0  0
 22 37  1  0  0  0  0
 22 38  1  0  0  0  0
 22 39  1  0  0  0  0
 23 40  1  0  0  0  0
 23 41  1  0  0  0  0
 23 42  1  0  0  0  0
M  END
>  <$CLUSTER>
685

>  <INDEX>
452103

$$$$
Chem T&I IVK/0001168
  MOE2020           3D

 36 38  0  0  0  0  0  0  0  0999 V2000
    0.7130    0.6750    0.2720 S   0  0  0  0  0  0  0  0  0  0  0  0
    0.6240    1.5020   -1.3140 C   0  0  0  0  0  0  0  0  0  0  0  0
   -0.7380   -0.1800    0.3130 N   0  0  0  0  0  0  0  0  0  0  0  0
    0.6480    1.6750    1.3260 O   0  0  0  0  0  0  0  0  0  0  0  0
    1.8020   -0.2870    0.2480 O   0  0  0  0  0  0  0  0  0  0  0  0
    1.1520    0.8630   -2.4310 C   0  0  0  0  0  0  0  0  0  0  0  0
    1.1200    1.5210   -3.6620 C   0  0  0  0  0  0  0  0  0  0  0  0
    0.0950    2.7810   -1.3850 C   0  0  0  0  0  0  0  0  0  0  0  0
    0.5770    2.8030   -3.7540 C   0  0  0  0  0  0  0  0  0  0  0  0
    0.0650    3.4330   -2.6180 C   0  0  0  0  0  0  0  0  0  0  0  0
   -0.9400   -1.2660   -0.6510 C   0  0  0  0  0  0  0  0  0  0  0  0
   -3.3840   -1.9640   -0.7810 C   0  0  0  0  0  0  0  0  0  0  0  0
   -4.4530   -2.7750   -0.3890 C   0  0  0  0  0  0  0  0  0  0  0  0
   -2.1100   -2.1180   -0.1940 C   0  0  0  0  0  0  0  0  0  0  0  0
   -5.9790   -2.5510   -1.1090 Cl  0  0  0  0  0  0  0  0  0  0  0  0
   -3.0120   -3.9270    1.1710 C   0  0  0  0  0  0  0  0  0  0  0  0
    1.6370    0.8960   -4.8220 C   0  0  0  0  0  0  0  0  0  0  0  0
   -4.2660   -3.7570    0.5840 C   0  0  0  0  0  0  0  0  0  0  0  0
   -1.9420   -3.1170    0.7810 C   0  0  0  0  0  0  0  0  0  0  0  0
    0.5570    3.4640   -5.0120 C   0  0  0  0  0  0  0  0  0  0  0  0
    1.6100    1.5540   -6.0510 C   0  0  0  0  0  0  0  0  0  0  0  0
    1.0710    2.8350   -6.1460 C   0  0  0  0  0  0  0  0  0  0  0  0
   -1.4820    0.4880    0.1690 H   0  0  0  0  0  0  0  0  0  0  0  0
    1.5790   -0.1250   -2.3470 H   0  0  0  0  0  0  0  0  0  0  0  0
   -0.2880    3.2660   -0.4990 H   0  0  0  0  0  0  0  0  0  0  0  0
   -0.3540    4.4250   -2.6940 H   0  0  0  0  0  0  0  0  0  0  0  0
   -0.0400   -1.8790   -0.7050 H   0  0  0  0  0  0  0  0  0  0  0  0
   -1.1540   -0.8470   -1.6340 H   0  0  0  0  0  0  0  0  0  0  0  0
   -3.5350   -1.2120   -1.5410 H   0  0  0  0  0  0  0  0  0  0  0  0
   -2.8680   -4.6850    1.9270 H   0  0  0  0  0  0  0  0  0  0  0  0
    2.0550   -0.0970   -4.7550 H   0  0  0  0  0  0  0  0  0  0  0  0
   -5.0920   -4.3860    0.8830 H   0  0  0  0  0  0  0  0  0  0  0  0
   -0.9730   -3.2600    1.2350 H   0  0  0  0  0  0  0  0  0  0  0  0
    0.1420    4.4580   -5.0900 H   0  0  0  0  0  0  0  0  0  0  0  0
    2.0080    1.0700   -6.9310 H   0  0  0  0  0  0  0  0  0  0  0  0
    1.0510    3.3420   -7.0990 H   0  0  0  0  0  0  0  0  0  0  0  0
  1  2  1  0  0  0  0
  1  3  1  0  0  0  0
  1  4  2  0  0  0  0
  1  5  2  0  0  0  0
  2  6  2  0  0  0  0
  2  8  1  0  0  0  0
  3 11  1  0  0  0  0
  3 23  1  0  0  0  0
  6  7  1  0  0  0  0
  6 24  1  0  0  0  0
  7  9  2  0  0  0  0
  7 17  1  0  0  0  0
  8 10  2  0  0  0  0
  8 25  1  0  0  0  0
  9 10  1  0  0  0  0
  9 20  1  0  0  0  0
 10 26  1  0  0  0  0
 11 14  1  0  0  0  0
 11 27  1  0  0  0  0
 11 28  1  0  0  0  0
 12 13  2  0  0  0  0
 12 14  1  0  0  0  0
 12 29  1  0  0  0  0
 13 15  1  0  0  0  0
 13 18  1  0  0  0  0
 14 19  2  0  0  0  0
 16 18  2  0  0  0  0
 16 19  1  0  0  0  0
 16 30  1  0  0  0  0
 17 21  2  0  0  0  0
 17 31  1  0  0  0  0
 18 32  1  0  0  0  0
 19 33  1  0  0  0  0
 20 22  2  0  0  0  0
 20 34  1  0  0  0  0
 21 22  1  0  0  0  0
 21 35  1  0  0  0  0
 22 36  1  0  0  0  0
M  END
>  <$CLUSTER>
686

>  <INDEX>
553462

$$$$
Tripos 1528-09226
  MOE2020           3D

 34 34  0  0  1  0  0  0  0  0999 V2000
    1.7470    0.0250   -0.2700 S   0  0  0  0  0  0  0  0  0  0  0  0
    0.0430   -0.1500    0.1250 C   0  0  0  0  0  0  0  0  0  0  0  0
    2.5180   -1.1410    0.6390 N   0  0  0  0  0  0  0  0  0  0  0  0
   -2.1170   -2.3320    2.3380 C   0  0  0  0  0  0  0  0  0  0  0  0
   -0.3700   -1.1300    1.0390 C   0  0  0  0  0  0  0  0  0  0  0  0
   -1.7210   -1.2710    1.3550 C   0  0  0  0  0  0  0  0  0  0  0  0
    1.9280   -0.3500   -1.6610 O   0  0  0  0  0  0  0  0  0  0  0  0
    2.1970    1.3080    0.2370 O   0  0  0  0  0  0  0  0  0  0  0  0
    2.5260   -0.9690    2.1280 C   0  0  0  0  0  0  0  0  0  0  0  0
   -0.9040    0.6860   -0.4710 C   0  0  0  0  0  0  0  0  0  0  0  0
   -2.6660   -0.4390    0.7620 C   0  0  0  0  0  0  0  0  0  0  0  0
   -2.2600    0.5370   -0.1480 C   0  0  0  0  0  0  0  0  0  0  0  0
   -1.5040   -2.1350    3.5370 F   0  0  0  0  0  0  0  0  0  0  0  0
   -1.7360   -3.5630    1.9010 F   0  0  0  0  0  0  0  0  0  0  0  0
   -3.4530   -2.4100    2.5960 F   0  0  0  0  0  0  0  0  0  0  0  0
    3.2420    0.2700    2.5980 C   0  0  3  0  0  0  0  0  0  0  0  0
   -0.5120    1.9250   -1.6090 Cl  0  0  0  0  0  0  0  0  0  0  0  0
    2.2650   -2.5770    0.2890 C   0  0  0  0  0  0  0  0  0  0  0  0
    4.6030    0.2630    2.1080 O   0  0  0  0  0  0  0  0  0  0  0  0
    3.7860    1.6660    4.4780 O   0  0  0  0  0  0  0  0  0  0  0  0
    3.2630    0.3950    4.0970 C   0  0  0  0  0  0  0  0  0  0  0  0
    0.3610   -1.7780    1.5000 H   0  0  0  0  0  0  0  0  0  0  0  0
    3.0160   -1.8360    2.5710 H   0  0  0  0  0  0  0  0  0  0  0  0
    1.4930   -0.9200    2.4730 H   0  0  0  0  0  0  0  0  0  0  0  0
   -3.7120   -0.5490    1.0060 H   0  0  0  0  0  0  0  0  0  0  0  0
   -2.9950    1.1820   -0.6070 H   0  0  0  0  0  0  0  0  0  0  0  0
    2.6920    1.1240    2.2020 H   0  0  0  0  0  0  0  0  0  0  0  0
    2.2610   -2.6920   -0.7950 H   0  0  0  0  0  0  0  0  0  0  0  0
    1.2990   -2.8840    0.6900 H   0  0  0  0  0  0  0  0  0  0  0  0
    3.0510   -3.1990    0.7170 H   0  0  0  0  0  0  0  0  0  0  0  0
    5.0430   -0.5030    2.4830 H   0  0  0  0  0  0  0  0  0  0  0  0
    3.7830    1.7060    5.4370 H   0  0  0  0  0  0  0  0  0  0  0  0
    3.8900   -0.3920    4.5150 H   0  0  0  0  0  0  0  0  0  0  0  0
    2.2480    0.2940    4.4810 H   0  0  0  0  0  0  0  0  0  0  0  0
  1  2  1  0  0  0  0
  1  3  1  0  0  0  0
  1  7  2  0  0  0  0
  1  8  2  0  0  0  0
  2  5  2  0  0  0  0
  2 10  1  0  0  0  0
  3  9  1  0  0  0  0
  3 18  1  0  0  0  0
  4  6  1  0  0  0  0
  4 13  1  0  0  0  0
  4 14  1  0  0  0  0
  4 15  1  0  0  0  0
  5  6  1  0  0  0  0
  5 22  1  0  0  0  0
  6 11  2  0  0  0  0
  9 16  1  0  0  0  0
  9 23  1  0  0  0  0
  9 24  1  0  0  0  0
 10 12  2  0  0  0  0
 10 17  1  0  0  0  0
 11 12  1  0  0  0  0
 11 25  1  0  0  0  0
 12 26  1  0  0  0  0
 16 19  1  0  0  0  0
 16 21  1  0  0  0  0
 16 27  1  0  0  0  0
 18 28  1  0  0  0  0
 18 29  1  0  0  0  0
 18 30  1  0  0  0  0
 19 31  1  0  0  0  0
 20 21  1  0  0  0  0
 20 32  1  0  0  0  0
 21 33  1  0  0  0  0
 21 34  1  0  0  0  0
M  END
>  <$CLUSTER>
687

>  <INDEX>
452255

$$$$
Chem T&I AMSACS-26179
  MOE2020           3D

 38 39  0  0  0  0  0  0  0  0999 V2000
    1.6960    1.3810   -0.0550 S   0  0  0  0  0  0  0  0  0  0  0  0
    0.7910    0.3800    0.9780 N   0  0  0  0  0  0  0  0  0  0  0  0
   -0.3090   -0.4030    0.4890 C   0  0  0  0  0  0  0  0  0  0  0  0
    0.5040    2.6520   -0.4140 C   0  0  0  0  0  0  0  0  0  0  0  0
   -0.3890   -0.6460   -0.8370 N   0  0  0  0  0  0  0  0  0  0  0  0
    2.0190    0.6980   -1.2910 O   0  0  0  0  0  0  0  0  0  0  0  0
    2.7450    2.0020    0.7340 O   0  0  0  0  0  0  0  0  0  0  0  0
    0.4160    3.7690    0.4010 C   0  0  0  0  0  0  0  0  0  0  0  0
   -0.5120    4.7640    0.0910 C   0  0  0  0  0  0  0  0  0  0  0  0
   -1.3990   -1.4410   -1.2570 C   0  0  0  0  0  0  0  0  0  0  0  0
   -1.3360    4.6310   -1.0270 C   0  0  0  0  0  0  0  0  0  0  0  0
   -0.3090    2.5020   -1.5400 C   0  0  0  0  0  0  0  0  0  0  0  0
   -1.1790   -0.9640    1.4170 C   0  0  0  0  0  0  0  0  0  0  0  0
   -1.2340    3.5020   -1.8410 C   0  0  0  0  0  0  0  0  0  0  0  0
   -2.2060   -1.7790    0.9500 C   0  0  0  0  0  0  0  0  0  0  0  0
   -2.3270   -2.0250   -0.4120 C   0  0  0  0  0  0  0  0  0  0  0  0
   -0.6290    5.9770    0.9560 C   0  0  0  0  0  0  0  0  0  0  0  0
   -2.3260    5.7020   -1.3490 C   0  0  0  0  0  0  0  0  0  0  0  0
   -1.4970   -1.6910   -2.7350 C   0  0  0  0  0  0  0  0  0  0  0  0
   -3.1710   -2.3840    1.9160 C   0  0  0  0  0  0  0  0  0  0  0  0
    1.0320    0.3350    1.9580 H   0  0  0  0  0  0  0  0  0  0  0  0
    1.0570    3.8680    1.2650 H   0  0  0  0  0  0  0  0  0  0  0  0
   -0.2230    1.6270   -2.1670 H   0  0  0  0  0  0  0  0  0  0  0  0
   -1.0610   -0.7720    2.4730 H   0  0  0  0  0  0  0  0  0  0  0  0
   -1.8730    3.4020   -2.7060 H   0  0  0  0  0  0  0  0  0  0  0  0
   -3.1180   -2.6510   -0.7980 H   0  0  0  0  0  0  0  0  0  0  0  0
    0.0870    5.9090    1.7750 H   0  0  0  0  0  0  0  0  0  0  0  0
   -1.6390    6.0390    1.3610 H   0  0  0  0  0  0  0  0  0  0  0  0
   -0.4200    6.8680    0.3630 H   0  0  0  0  0  0  0  0  0  0  0  0
   -2.2570    6.4960   -0.6050 H   0  0  0  0  0  0  0  0  0  0  0  0
   -3.3320    5.2820   -1.3400 H   0  0  0  0  0  0  0  0  0  0  0  0
   -2.1110    6.1100   -2.3370 H   0  0  0  0  0  0  0  0  0  0  0  0
   -0.6950   -1.1600   -3.2470 H   0  0  0  0  0  0  0  0  0  0  0  0
   -2.4600   -1.3350   -3.1010 H   0  0  0  0  0  0  0  0  0  0  0  0
   -1.4070   -2.7600   -2.9290 H   0  0  0  0  0  0  0  0  0  0  0  0
   -2.9120   -2.0760    2.9290 H   0  0  0  0  0  0  0  0  0  0  0  0
   -3.1250   -3.4710    1.8440 H   0  0  0  0  0  0  0  0  0  0  0  0
   -4.1800   -2.0470    1.6800 H   0  0  0  0  0  0  0  0  0  0  0  0
  1  2  1  0  0  0  0
  1  4  1  0  0  0  0
  1  6  2  0  0  0  0
  1  7  2  0  0  0  0
  2  3  1  0  0  0  0
  2 21  1  0  0  0  0
  3  5  2  0  0  0  0
  3 13  1  0  0  0  0
  4  8  1  0  0  0  0
  4 12  2  0  0  0  0
  5 10  1  0  0  0  0
  8  9  2  0  0  0  0
  8 22  1  0  0  0  0
  9 11  1  0  0  0  0
  9 17  1  0  0  0  0
 10 16  2  0  0  0  0
 10 19  1  0  0  0  0
 11 14  2  0  0  0  0
 11 18  1  0  0  0  0
 12 14  1  0  0  0  0
 12 23  1  0  0  0  0
 13 15  2  0  0  0  0
 13 24  1  0  0  0  0
 14 25  1  0  0  0  0
 15 16  1  0  0  0  0
 15 20  1  0  0  0  0
 16 26  1  0  0  0  0
 17 27  1  0  0  0  0
 17 28  1  0  0  0  0
 17 29  1  0  0  0  0
 18 30  1  0  0  0  0
 18 31  1  0  0  0  0
 18 32  1  0  0  0  0
 19 33  1  0  0  0  0
 19 34  1  0  0  0  0
 19 35  1  0  0  0  0
 20 36  1  0  0  0  0
 20 37  1  0  0  0  0
 20 38  1  0  0  0  0
M  END
>  <$CLUSTER>
688

>  <INDEX>
523713

$$$$
Tripos 1530-01375
  MOE2020           3D

 46 49  0  0  0  0  0  0  0  0999 V2000
    0.7000   -3.4780   -1.4890 C   0  0  0  0  0  0  0  0  0  0  0  0
   -0.0060   -4.4970   -2.1580 C   0  0  0  0  0  0  0  0  0  0  0  0
    1.2610   -1.9150   -0.2510 N   0  0  0  0  0  0  0  0  0  0  0  0
    2.0040   -3.2640   -1.8050 O   0  0  0  0  0  0  0  0  0  0  0  0
    0.1980   -2.7100   -0.5720 N   0  0  0  0  0  0  0  0  0  0  0  0
    2.3780   -2.2340   -0.9890 C   0  0  0  0  0  0  0  0  0  0  0  0
   -1.3320   -4.7520   -1.8700 N   0  0  0  0  0  0  0  0  0  0  0  0
   -0.6380   -6.1450   -3.4440 N   0  0  0  0  0  0  0  0  0  0  0  0
    0.4480   -5.3600   -3.1430 C   0  0  0  0  0  0  0  0  0  0  0  0
    1.1680   -0.8720    0.7700 C   0  0  0  0  0  0  0  0  0  0  0  0
   -1.6770   -5.7430   -2.6570 C   0  0  0  0  0  0  0  0  0  0  0  0
    0.4990    0.3870    0.1990 C   0  0  0  0  0  0  0  0  0  0  0  0
   -0.8630    0.3320   -0.1210 N   0  0  0  0  0  0  0  0  0  0  0  0
   -0.7360   -7.2300   -4.4130 C   0  0  0  0  0  0  0  0  0  0  0  0
    3.4930   -1.7320   -0.9670 O   0  0  0  0  0  0  0  0  0  0  0  0
    1.1600    1.4180    0.0500 O   0  0  0  0  0  0  0  0  0  0  0  0
   -2.9080    0.9130   -1.0050 C   0  0  0  0  0  0  0  0  0  0  0  0
   -3.0070   -0.3540   -0.6060 C   0  0  0  0  0  0  0  0  0  0  0  0
   -1.1710   -6.7420   -5.7840 C   0  0  0  0  0  0  0  0  0  0  0  0
   -1.9820   -5.8270   -8.3080 C   0  0  0  0  0  0  0  0  0  0  0  0
   -1.5190    1.5010   -0.6940 C   0  0  0  0  0  0  0  0  0  0  0  0
   -1.7040   -0.8510    0.0470 C   0  0  0  0  0  0  0  0  0  0  0  0
    1.7530   -5.5300   -3.8200 C   0  0  0  0  0  0  0  0  0  0  0  0
   -2.4890   -5.2840   -9.8390 Cl  0  0  0  0  0  0  0  0  0  0  0  0
   -0.2250   -6.5160   -6.7930 C   0  0  0  0  0  0  0  0  0  0  0  0
   -2.5250   -6.4830   -6.0440 C   0  0  0  0  0  0  0  0  0  0  0  0
   -0.6310   -6.0650   -8.0520 C   0  0  0  0  0  0  0  0  0  0  0  0
   -2.9280   -6.0330   -7.3040 C   0  0  0  0  0  0  0  0  0  0  0  0
    2.1700   -0.6190    1.1160 H   0  0  0  0  0  0  0  0  0  0  0  0
    0.5770   -1.2430    1.6080 H   0  0  0  0  0  0  0  0  0  0  0  0
   -2.6620   -6.1860   -2.6790 H   0  0  0  0  0  0  0  0  0  0  0  0
   -1.4640   -7.9570   -4.0530 H   0  0  0  0  0  0  0  0  0  0  0  0
    0.2400   -7.7070   -4.5040 H   0  0  0  0  0  0  0  0  0  0  0  0
   -3.7040    1.4610   -1.4870 H   0  0  0  0  0  0  0  0  0  0  0  0
   -3.8930   -0.9590   -0.7260 H   0  0  0  0  0  0  0  0  0  0  0  0
   -1.0150    1.8440   -1.5980 H   0  0  0  0  0  0  0  0  0  0  0  0
   -1.5790    2.3210    0.0220 H   0  0  0  0  0  0  0  0  0  0  0  0
   -1.8480   -1.0980    1.0990 H   0  0  0  0  0  0  0  0  0  0  0  0
   -1.2940   -1.7150   -0.4760 H   0  0  0  0  0  0  0  0  0  0  0  0
    2.4640   -4.8040   -3.4250 H   0  0  0  0  0  0  0  0  0  0  0  0
    1.6300   -5.3720   -4.8910 H   0  0  0  0  0  0  0  0  0  0  0  0
    2.1260   -6.5380   -3.6420 H   0  0  0  0  0  0  0  0  0  0  0  0
    0.8220   -6.6910   -6.5970 H   0  0  0  0  0  0  0  0  0  0  0  0
   -3.2600   -6.6320   -5.2660 H   0  0  0  0  0  0  0  0  0  0  0  0
    0.1020   -5.9000   -8.8280 H   0  0  0  0  0  0  0  0  0  0  0  0
   -3.9730   -5.8450   -7.5010 H   0  0  0  0  0  0  0  0  0  0  0  0
  1  2  1  0  0  0  0
  1  4  1  0  0  0  0
  1  5  2  0  0  0  0
  2  7  1  0  0  0  0
  2  9  2  0  0  0  0
  3  5  1  0  0  0  0
  3  6  1  0  0  0  0
  3 10  1  0  0  0  0
  4  6  1  0  0  0  0
  6 15  2  0  0  0  0
  7 11  2  0  0  0  0
  8  9  1  0  0  0  0
  8 11  1  0  0  0  0
  8 14  1  0  0  0  0
  9 23  1  0  0  0  0
 10 12  1  0  0  0  0
 10 29  1  0  0  0  0
 10 30  1  0  0  0  0
 11 31  1  0  0  0  0
 12 13  1  0  0  0  0
 12 16  2  0  0  0  0
 13 21  1  0  0  0  0
 13 22  1  0  0  0  0
 14 19  1  0  0  0  0
 14 32  1  0  0  0  0
 14 33  1  0  0  0  0
 17 18  2  0  0  0  0
 17 21  1  0  0  0  0
 17 34  1  0  0  0  0
 18 22  1  0  0  0  0
 18 35  1  0  0  0  0
 19 25  2  0  0  0  0
 19 26  1  0  0  0  0
 20 24  1  0  0  0  0
 20 27  2  0  0  0  0
 20 28  1  0  0  0  0
 21 36  1  0  0  0  0
 21 37  1  0  0  0  0
 22 38  1  0  0  0  0
 22 39  1  0  0  0  0
 23 40  1  0  0  0  0
 23 41  1  0  0  0  0
 23 42  1  0  0  0  0
 25 27  1  0  0  0  0
 25 43  1  0  0  0  0
 26 28  2  0  0  0  0
 26 44  1  0  0  0  0
 27 45  1  0  0  0  0
 28 46  1  0  0  0  0
M  END
>  <$CLUSTER>
689

>  <INDEX>
452693

$$$$
Tripos 1513-09513
  MOE2020           3D

 52 54  0  0  1  0  0  0  0  0999 V2000
    3.3070    3.2860   -0.9430 S   0  0  0  0  0  0  0  0  0  0  0  0
    1.9470    2.3260   -0.7160 N   0  0  0  0  0  0  0  0  0  0  0  0
   -0.0450    0.2380   -0.1700 N   0  0  0  0  0  0  0  0  0  0  0  0
    1.6320    1.8820    0.6670 C   0  0  0  0  0  0  0  0  0  0  0  0
    0.2090    1.2990    0.8370 C   0  0  3  0  0  0  0  0  0  0  0  0
   -0.7050   -0.9670    0.1510 C   0  0  0  0  0  0  0  0  0  0  0  0
    1.8960    4.5610   -1.4050 C   0  0  0  0  0  0  0  0  0  0  0  0
    1.7480    1.1760   -1.6350 C   0  0  0  0  0  0  0  0  0  0  0  0
    0.3460    0.5430   -1.5620 C   0  0  0  0  0  0  0  0  0  0  0  0
    3.8510    3.8470    0.2280 O   0  0  0  0  0  0  0  0  0  0  0  0
    3.9710    3.1110   -2.1720 O   0  0  0  0  0  0  0  0  0  0  0  0
   -0.9920    8.3110   -3.7130 C   0  0  0  0  0  0  0  0  0  0  0  0
   -0.4950    7.9250   -2.4760 N   0  0  0  0  0  0  0  0  0  0  0  0
   -1.5460   -1.6090   -0.7770 C   0  0  0  0  0  0  0  0  0  0  0  0
   -0.8220    7.7640   -4.7990 O   0  0  0  0  0  0  0  0  0  0  0  0
    1.6320    4.8590   -2.7840 C   0  0  0  0  0  0  0  0  0  0  0  0
    1.5540    5.6060   -0.4750 C   0  0  0  0  0  0  0  0  0  0  0  0
    0.3040    6.7860   -2.1760 C   0  0  0  0  0  0  0  0  0  0  0  0
   -2.2080   -2.8010   -0.4690 C   0  0  0  0  0  0  0  0  0  0  0  0
    0.7710    5.8970   -3.1450 C   0  0  0  0  0  0  0  0  0  0  0  0
    0.6930    6.6420   -0.8440 C   0  0  0  0  0  0  0  0  0  0  0  0
   -0.5570   -1.5850    1.4060 C   0  0  0  0  0  0  0  0  0  0  0  0
   -0.8700    2.3810    0.7090 C   0  0  0  0  0  0  0  0  0  0  0  0
   -1.2150   -2.7790    1.7190 C   0  0  0  0  0  0  0  0  0  0  0  0
   -1.8290    9.5600   -3.6000 C   0  0  0  0  0  0  0  0  0  0  0  0
   -2.0430   -3.3880    0.7810 C   0  0  0  0  0  0  0  0  0  0  0  0
   -3.0950   -3.4450   -1.4850 C   0  0  0  0  0  0  0  0  0  0  0  0
    1.7320    2.7390    1.3320 H   0  0  0  0  0  0  0  0  0  0  0  0
    2.3520    1.1150    0.9520 H   0  0  0  0  0  0  0  0  0  0  0  0
    0.1570    0.8760    1.8400 H   0  0  0  0  0  0  0  0  0  0  0  0
    2.4820    0.4090   -1.3870 H   0  0  0  0  0  0  0  0  0  0  0  0
    1.9140    1.5210   -2.6550 H   0  0  0  0  0  0  0  0  0  0  0  0
   -0.3780    1.2380   -1.9880 H   0  0  0  0  0  0  0  0  0  0  0  0
    0.3450   -0.3810   -2.1400 H   0  0  0  0  0  0  0  0  0  0  0  0
   -0.7280    8.5230   -1.6960 H   0  0  0  0  0  0  0  0  0  0  0  0
   -1.6840   -1.1690   -1.7540 H   0  0  0  0  0  0  0  0  0  0  0  0
    2.1070    4.2710   -3.5550 H   0  0  0  0  0  0  0  0  0  0  0  0
    1.9690    5.5880    0.5220 H   0  0  0  0  0  0  0  0  0  0  0  0
    0.4660    6.0120   -4.1750 H   0  0  0  0  0  0  0  0  0  0  0  0
    0.3280    7.3320   -0.0980 H   0  0  0  0  0  0  0  0  0  0  0  0
    0.0810   -1.1260    2.1470 H   0  0  0  0  0  0  0  0  0  0  0  0
   -0.8320    2.8150   -0.2900 H   0  0  0  0  0  0  0  0  0  0  0  0
   -0.6930    3.1600    1.4510 H   0  0  0  0  0  0  0  0  0  0  0  0
   -1.8510    1.9370    0.8750 H   0  0  0  0  0  0  0  0  0  0  0  0
   -1.0800   -3.2290    2.6910 H   0  0  0  0  0  0  0  0  0  0  0  0
   -1.8560    9.8860   -2.5600 H   0  0  0  0  0  0  0  0  0  0  0  0
   -2.8430    9.3500   -3.9420 H   0  0  0  0  0  0  0  0  0  0  0  0
   -1.3930   10.3460   -4.2160 H   0  0  0  0  0  0  0  0  0  0  0  0
   -2.5530   -4.3090    1.0220 H   0  0  0  0  0  0  0  0  0  0  0  0
   -3.1000   -2.8460   -2.3950 H   0  0  0  0  0  0  0  0  0  0  0  0
   -4.1090   -3.5140   -1.0900 H   0  0  0  0  0  0  0  0  0  0  0  0
   -2.7230   -4.4450   -1.7100 H   0  0  0  0  0  0  0  0  0  0  0  0
  1  2  1  0  0  0  0
  1  7  1  0  0  0  0
  1 10  2  0  0  0  0
  1 11  2  0  0  0  0
  2  4  1  0  0  0  0
  2  8  1  0  0  0  0
  3  5  1  0  0  0  0
  3  6  1  0  0  0  0
  3  9  1  0  0  0  0
  4  5  1  0  0  0  0
  4 28  1  0  0  0  0
  4 29  1  0  0  0  0
  5 23  1  0  0  0  0
  5 30  1  0  0  0  0
  6 14  2  0  0  0  0
  6 22  1  0  0  0  0
  7 16  2  0  0  0  0
  7 17  1  0  0  0  0
  8  9  1  0  0  0  0
  8 31  1  0  0  0  0
  8 32  1  0  0  0  0
  9 33  1  0  0  0  0
  9 34  1  0  0  0  0
 12 13  1  0  0  0  0
 12 15  2  0  0  0  0
 12 25  1  0  0  0  0
 13 18  1  0  0  0  0
 13 35  1  0  0  0  0
 14 19  1  0  0  0  0
 14 36  1  0  0  0  0
 16 20  1  0  0  0  0
 16 37  1  0  0  0  0
 17 21  2  0  0  0  0
 17 38  1  0  0  0  0
 18 20  2  0  0  0  0
 18 21  1  0  0  0  0
 19 26  2  0  0  0  0
 19 27  1  0  0  0  0
 20 39  1  0  0  0  0
 21 40  1  0  0  0  0
 22 24  2  0  0  0  0
 22 41  1  0  0  0  0
 23 42  1  0  0  0  0
 23 43  1  0  0  0  0
 23 44  1  0  0  0  0
 24 26  1  0  0  0  0
 24 45  1  0  0  0  0
 25 46  1  0  0  0  0
 25 47  1  0  0  0  0
 25 48  1  0  0  0  0
 26 49  1  0  0  0  0
 27 50  1  0  0  0  0
 27 51  1  0  0  0  0
 27 52  1  0  0  0  0
M  END
>  <$CLUSTER>
690

>  <INDEX>
441294

$$$$
Tripos 1534-03292
  MOE2020           3D

 56 59  0  0  1  0  0  0  0  0999 V2000
    0.2020    1.0020   -1.5650 C   0  0  0  0  0  0  0  0  0  0  0  0
   -0.6610    0.7700   -0.5050 N   0  0  0  0  0  0  0  0  0  0  0  0
   -2.4860    8.5590    2.2260 N   0  0  0  0  0  0  0  0  0  0  0  0
   -1.8760    9.0550    1.0300 C   0  0  2  0  0  0  0  0  0  0  0  0
   -3.0130    9.6360    2.9700 C   0  0  0  0  0  0  0  0  0  0  0  0
    1.3330    0.1700   -1.4740 O   0  0  0  0  0  0  0  0  0  0  0  0
   -0.1020   -0.2090    0.2880 C   0  0  0  0  0  0  0  0  0  0  0  0
   -2.9490    4.3400    1.8770 N   0  0  0  0  0  0  0  0  0  0  0  0
   -2.8530   10.7950    2.2530 O   0  0  0  0  0  0  0  0  0  0  0  0
   -3.0860    3.2870    0.9970 C   0  0  0  0  0  0  0  0  0  0  0  0
    1.0920   -0.5510   -0.3150 C   0  0  0  0  0  0  0  0  0  0  0  0
   -0.3620    9.1930    1.1130 C   0  0  0  0  0  0  0  0  0  0  0  0
   -1.9220    1.4340   -0.2510 C   0  0  0  0  0  0  0  0  0  0  0  0
   -1.7680    2.5950    0.7180 C   0  0  0  0  0  0  0  0  0  0  0  0
   -2.4830   10.4400    0.9080 C   0  0  0  0  0  0  0  0  0  0  0  0
   -2.7000    7.1590    2.6000 C   0  0  0  0  0  0  0  0  0  0  0  0
    0.0520    1.8070   -2.4760 O   0  0  0  0  0  0  0  0  0  0  0  0
   -3.9610    6.6080    1.9330 C   0  0  0  0  0  0  0  0  0  0  0  0
   -1.4890    6.3070    2.2170 C   0  0  0  0  0  0  0  0  0  0  0  0
   -1.7310    4.8270    2.5310 C   0  0  0  0  0  0  0  0  0  0  0  0
   -4.1630    5.1290    2.2560 C   0  0  0  0  0  0  0  0  0  0  0  0
   -3.5320    9.5950    4.0770 O   0  0  0  0  0  0  0  0  0  0  0  0
   -4.1580    2.9570    0.5010 O   0  0  0  0  0  0  0  0  0  0  0  0
    0.3340    9.4390    0.1330 O   0  0  0  0  0  0  0  0  0  0  0  0
    0.1510    9.0990    2.3610 O   0  0  0  0  0  0  0  0  0  0  0  0
   -0.5320   -0.8060    1.4550 C   0  0  0  0  0  0  0  0  0  0  0  0
    1.9240   -1.5140    0.2170 C   0  0  0  0  0  0  0  0  0  0  0  0
    1.5190    9.2250    2.5500 C   0  0  0  0  0  0  0  0  0  0  0  0
    0.2950   -1.7850    2.0130 C   0  0  0  0  0  0  0  0  0  0  0  0
    1.5130   -2.1360    1.3990 C   0  0  0  0  0  0  0  0  0  0  0  0
    1.8350    9.0470    4.0210 C   0  0  0  0  0  0  0  0  0  0  0  0
   -2.0490    8.3770    0.1940 H   0  0  0  0  0  0  0  0  0  0  0  0
   -2.3170    1.8120   -1.1940 H   0  0  0  0  0  0  0  0  0  0  0  0
   -2.6210    0.7120    0.1720 H   0  0  0  0  0  0  0  0  0  0  0  0
   -1.0750    3.3190    0.2900 H   0  0  0  0  0  0  0  0  0  0  0  0
   -1.3640    2.2170    1.6570 H   0  0  0  0  0  0  0  0  0  0  0  0
   -3.3600   10.4200    0.2600 H   0  0  0  0  0  0  0  0  0  0  0  0
   -1.7540   11.1460    0.5110 H   0  0  0  0  0  0  0  0  0  0  0  0
   -2.8300    7.1150    3.6810 H   0  0  0  0  0  0  0  0  0  0  0  0
   -4.8250    7.1700    2.2890 H   0  0  0  0  0  0  0  0  0  0  0  0
   -3.8710    6.7260    0.8530 H   0  0  0  0  0  0  0  0  0  0  0  0
   -1.3000    6.4180    1.1490 H   0  0  0  0  0  0  0  0  0  0  0  0
   -0.6200    6.6520    2.7770 H   0  0  0  0  0  0  0  0  0  0  0  0
   -1.8330    4.7040    3.6090 H   0  0  0  0  0  0  0  0  0  0  0  0
   -0.8800    4.2450    2.1780 H   0  0  0  0  0  0  0  0  0  0  0  0
   -5.0220    4.7540    1.7000 H   0  0  0  0  0  0  0  0  0  0  0  0
   -4.3450    5.0170    3.3250 H   0  0  0  0  0  0  0  0  0  0  0  0
   -1.4680   -0.5290    1.9180 H   0  0  0  0  0  0  0  0  0  0  0  0
    2.8560   -1.7770   -0.2610 H   0  0  0  0  0  0  0  0  0  0  0  0
    2.0390    8.4630    1.9700 H   0  0  0  0  0  0  0  0  0  0  0  0
    1.8430   10.2130    2.2240 H   0  0  0  0  0  0  0  0  0  0  0  0
   -0.0040   -2.2780    2.9260 H   0  0  0  0  0  0  0  0  0  0  0  0
    2.1370   -2.8950    1.8470 H   0  0  0  0  0  0  0  0  0  0  0  0
    1.5110    8.0580    4.3450 H   0  0  0  0  0  0  0  0  0  0  0  0
    1.3130    9.8090    4.6000 H   0  0  0  0  0  0  0  0  0  0  0  0
    2.9090    9.1460    4.1760 H   0  0  0  0  0  0  0  0  0  0  0  0
  1  2  1  0  0  0  0
  1  6  1  0  0  0  0
  1 17  2  0  0  0  0
  2  7  1  0  0  0  0
  2 13  1  0  0  0  0
  3  4  1  0  0  0  0
  3  5  1  0  0  0  0
  3 16  1  0  0  0  0
  4 12  1  0  0  0  0
  4 15  1  0  0  0  0
  4 32  1  0  0  0  0
  5  9  1  0  0  0  0
  5 22  2  0  0  0  0
  6 11  1  0  0  0  0
  7 11  1  0  0  0  0
  7 26  2  0  0  0  0
  8 10  1  0  0  0  0
  8 20  1  0  0  0  0
  8 21  1  0  0  0  0
  9 15  1  0  0  0  0
 10 14  1  0  0  0  0
 10 23  2  0  0  0  0
 11 27  2  0  0  0  0
 12 24  2  0  0  0  0
 12 25  1  0  0  0  0
 13 14  1  0  0  0  0
 13 33  1  0  0  0  0
 13 34  1  0  0  0  0
 14 35  1  0  0  0  0
 14 36  1  0  0  0  0
 15 37  1  0  0  0  0
 15 38  1  0  0  0  0
 16 18  1  0  0  0  0
 16 19  1  0  0  0  0
 16 39  1  0  0  0  0
 18 21  1  0  0  0  0
 18 40  1  0  0  0  0
 18 41  1  0  0  0  0
 19 20  1  0  0  0  0
 19 42  1  0  0  0  0
 19 43  1  0  0  0  0
 20 44  1  0  0  0  0
 20 45  1  0  0  0  0
 21 46  1  0  0  0  0
 21 47  1  0  0  0  0
 25 28  1  0  0  0  0
 26 29  1  0  0  0  0
 26 48  1  0  0  0  0
 27 30  1  0  0  0  0
 27 49  1  0  0  0  0
 28 31  1  0  0  0  0
 28 50  1  0  0  0  0
 28 51  1  0  0  0  0
 29 30  2  0  0  0  0
 29 52  1  0  0  0  0
 30 53  1  0  0  0  0
 31 54  1  0  0  0  0
 31 55  1  0  0  0  0
 31 56  1  0  0  0  0
M  END
>  <$CLUSTER>
691

>  <INDEX>
455250

$$$$
Tripos 1534-00247
  MOE2020           3D

 58 61  0  0  1  0  0  0  0  0999 V2000
    0.3610   -1.0760   -0.4660 C   0  0  0  0  0  0  0  0  0  0  0  0
    0.2530    0.2700   -0.1830 N   0  0  0  0  0  0  0  0  0  0  0  0
    0.7420    7.7900    5.7350 C   0  0  0  0  0  0  0  0  0  0  0  0
    2.4110    5.0550    1.3000 C   0  0  0  0  0  0  0  0  0  0  0  0
    2.4820    3.7510    0.8860 N   0  0  0  0  0  0  0  0  0  0  0  0
    1.4790    6.8170    5.1300 N   0  0  0  0  0  0  0  0  0  0  0  0
   -0.8970   -1.6200   -0.5500 O   0  0  0  0  0  0  0  0  0  0  0  0
    1.3740    1.1900    0.0260 C   0  0  0  0  0  0  0  0  0  0  0  0
   -1.1260    0.6720   -0.1340 C   0  0  0  0  0  0  0  0  0  0  0  0
    1.3840   -1.7240   -0.6340 O   0  0  0  0  0  0  0  0  0  0  0  0
    2.4670    5.3290    2.8070 C   0  0  0  0  0  0  0  0  0  0  0  0
    1.5180    1.5410    1.5060 C   0  0  0  0  0  0  0  0  0  0  0  0
    1.2570    2.4460   -0.8330 C   0  0  0  0  0  0  0  0  0  0  0  0
    2.3940    3.4090   -0.5390 C   0  0  0  0  0  0  0  0  0  0  0  0
    2.6530    2.5470    1.7090 C   0  0  0  0  0  0  0  0  0  0  0  0
    1.1070    5.4120    4.9330 C   0  0  0  0  0  0  0  0  0  0  0  0
    2.8080    7.0950    4.5760 C   0  0  0  0  0  0  0  0  0  0  0  0
    1.1130    8.9590    5.8680 O   0  0  0  0  0  0  0  0  0  0  0  0
   -1.8530   -0.6570   -0.0720 C   0  0  3  0  0  0  0  0  0  0  0  0
    2.2840    6.0000    0.5140 O   0  0  0  0  0  0  0  0  0  0  0  0
   -0.6100    7.3820    6.2640 C   0  0  0  0  0  0  0  0  0  0  0  0
    2.8660    6.7810    3.0820 C   0  0  0  0  0  0  0  0  0  0  0  0
    1.1080    5.0390    3.4430 C   0  0  0  0  0  0  0  0  0  0  0  0
   -0.8780    6.0710    6.6340 C   0  0  0  0  0  0  0  0  0  0  0  0
   -1.5850    8.3720    6.3900 C   0  0  0  0  0  0  0  0  0  0  0  0
   -2.2700   -1.0420    1.3410 C   0  0  0  0  0  0  0  0  0  0  0  0
   -2.1450    5.7400    7.1230 C   0  0  0  0  0  0  0  0  0  0  0  0
   -2.8490    8.0340    6.8790 C   0  0  0  0  0  0  0  0  0  0  0  0
   -3.1290    6.7190    7.2430 C   0  0  0  0  0  0  0  0  0  0  0  0
    2.2800    0.6750   -0.2930 H   0  0  0  0  0  0  0  0  0  0  0  0
   -1.4050    1.2320   -1.0260 H   0  0  0  0  0  0  0  0  0  0  0  0
   -1.3300    1.2740    0.7520 H   0  0  0  0  0  0  0  0  0  0  0  0
    3.2190    4.6730    3.2450 H   0  0  0  0  0  0  0  0  0  0  0  0
    1.7370    0.6340    2.0700 H   0  0  0  0  0  0  0  0  0  0  0  0
    0.5850    1.9760    1.8640 H   0  0  0  0  0  0  0  0  0  0  0  0
    0.3080    2.9380   -0.6190 H   0  0  0  0  0  0  0  0  0  0  0  0
    1.2910    2.1640   -1.8850 H   0  0  0  0  0  0  0  0  0  0  0  0
    3.3320    2.9480   -0.8470 H   0  0  0  0  0  0  0  0  0  0  0  0
    2.2340    4.3240   -1.1100 H   0  0  0  0  0  0  0  0  0  0  0  0
    2.6790    2.8400    2.7590 H   0  0  0  0  0  0  0  0  0  0  0  0
    3.5960    2.0700    1.4420 H   0  0  0  0  0  0  0  0  0  0  0  0
    0.1090    5.2480    5.3390 H   0  0  0  0  0  0  0  0  0  0  0  0
    1.8220    4.7780    5.4580 H   0  0  0  0  0  0  0  0  0  0  0  0
    3.5440    6.4820    5.0960 H   0  0  0  0  0  0  0  0  0  0  0  0
    3.0410    8.1490    4.7260 H   0  0  0  0  0  0  0  0  0  0  0  0
   -2.7710   -0.6090   -0.6570 H   0  0  0  0  0  0  0  0  0  0  0  0
    2.1820    7.4440    2.5520 H   0  0  0  0  0  0  0  0  0  0  0  0
    3.8820    6.9450    2.7230 H   0  0  0  0  0  0  0  0  0  0  0  0
    0.8860    3.9770    3.3410 H   0  0  0  0  0  0  0  0  0  0  0  0
    0.3430    5.6210    2.9290 H   0  0  0  0  0  0  0  0  0  0  0  0
   -0.1140    5.3130    6.5450 H   0  0  0  0  0  0  0  0  0  0  0  0
   -1.3640    9.3920    6.1120 H   0  0  0  0  0  0  0  0  0  0  0  0
   -1.3860   -1.1060    1.9760 H   0  0  0  0  0  0  0  0  0  0  0  0
   -2.7730   -2.0090    1.3210 H   0  0  0  0  0  0  0  0  0  0  0  0
   -2.9490   -0.2870    1.7380 H   0  0  0  0  0  0  0  0  0  0  0  0
   -2.3620    4.7210    7.4090 H   0  0  0  0  0  0  0  0  0  0  0  0
   -3.6110    8.7940    6.9750 H   0  0  0  0  0  0  0  0  0  0  0  0
   -4.1080    6.4590    7.6180 H   0  0  0  0  0  0  0  0  0  0  0  0
  1  2  1  0  0  0  0
  1  7  1  0  0  0  0
  1 10  2  0  0  0  0
  2  8  1  0  0  0  0
  2  9  1  0  0  0  0
  3  6  1  0  0  0  0
  3 18  2  0  0  0  0
  3 21  1  0  0  0  0
  4  5  1  0  0  0  0
  4 11  1  0  0  0  0
  4 20  2  0  0  0  0
  5 14  1  0  0  0  0
  5 15  1  0  0  0  0
  6 16  1  0  0  0  0
  6 17  1  0  0  0  0
  7 19  1  0  0  0  0
  8 12  1  0  0  0  0
  8 13  1  0  0  0  0
  8 30  1  0  0  0  0
  9 19  1  0  0  0  0
  9 31  1  0  0  0  0
  9 32  1  0  0  0  0
 11 22  1  0  0  0  0
 11 23  1  0  0  0  0
 11 33  1  0  0  0  0
 12 15  1  0  0  0  0
 12 34  1  0  0  0  0
 12 35  1  0  0  0  0
 13 14  1  0  0  0  0
 13 36  1  0  0  0  0
 13 37  1  0  0  0  0
 14 38  1  0  0  0  0
 14 39  1  0  0  0  0
 15 40  1  0  0  0  0
 15 41  1  0  0  0  0
 16 23  1  0  0  0  0
 16 42  1  0  0  0  0
 16 43  1  0  0  0  0
 17 22  1  0  0  0  0
 17 44  1  0  0  0  0
 17 45  1  0  0  0  0
 19 26  1  0  0  0  0
 19 46  1  0  0  0  0
 21 24  2  0  0  0  0
 21 25  1  0  0  0  0
 22 47  1  0  0  0  0
 22 48  1  0  0  0  0
 23 49  1  0  0  0  0
 23 50  1  0  0  0  0
 24 27  1  0  0  0  0
 24 51  1  0  0  0  0
 25 28  2  0  0  0  0
 25 52  1  0  0  0  0
 26 53  1  0  0  0  0
 26 54  1  0  0  0  0
 26 55  1  0  0  0  0
 27 29  2  0  0  0  0
 27 56  1  0  0  0  0
 28 29  1  0  0  0  0
 28 57  1  0  0  0  0
 29 58  1  0  0  0  0
M  END
>  <$CLUSTER>
692

>  <INDEX>
454884

$$$$
Tripos 1557-01752
  MOE2020           3D

 42 44  0  0  0  0  0  0  0  0999 V2000
    0.2400    0.5420   -1.8580 S   0  0  0  0  0  0  0  0  0  0  0  0
    0.0780    0.2060   -0.1930 C   0  0  0  0  0  0  0  0  0  0  0  0
   -0.9990   -0.3360    0.4550 C   0  0  0  0  0  0  0  0  0  0  0  0
    1.0150    0.4900    0.8300 C   0  0  0  0  0  0  0  0  0  0  0  0
    0.5590    0.1080    2.0320 N   0  0  0  0  0  0  0  0  0  0  0  0
   -0.6690   -0.3900    1.7770 N   0  0  0  0  0  0  0  0  0  0  0  0
   -0.7060   -0.5700   -2.7340 N   0  0  0  0  0  0  0  0  0  0  0  0
   -2.5210   -2.7640   -3.4830 N   0  0  0  0  0  0  0  0  0  0  0  0
    1.6360    0.2840   -2.1440 O   0  0  0  0  0  0  0  0  0  0  0  0
   -0.3370    1.8650   -1.9830 O   0  0  0  0  0  0  0  0  0  0  0  0
   -0.2510   -1.9670   -2.6680 C   0  0  0  0  0  0  0  0  0  0  0  0
   -2.1670   -0.4350   -2.5290 C   0  0  0  0  0  0  0  0  0  0  0  0
   -3.3320   -3.7950   -3.2860 C   0  0  0  0  0  0  0  0  0  0  0  0
   -1.0660   -2.8490   -3.6760 C   0  0  0  0  0  0  0  0  0  0  0  0
   -2.9340   -1.3550   -3.5410 C   0  0  0  0  0  0  0  0  0  0  0  0
   -2.5240   -0.8670   -0.0760 Cl  0  0  0  0  0  0  0  0  0  0  0  0
   -4.7210   -3.6320   -3.1070 C   0  0  0  0  0  0  0  0  0  0  0  0
   -2.8570   -5.1230   -3.2420 C   0  0  0  0  0  0  0  0  0  0  0  0
    2.3510    1.1250    0.7270 C   0  0  0  0  0  0  0  0  0  0  0  0
   -1.4580   -0.8940    2.8750 C   0  0  0  0  0  0  0  0  0  0  0  0
   -5.0740   -6.0120   -2.8630 C   0  0  0  0  0  0  0  0  0  0  0  0
   -5.5800   -4.7200   -2.8990 C   0  0  0  0  0  0  0  0  0  0  0  0
   -3.7110   -6.2130   -3.0340 C   0  0  0  0  0  0  0  0  0  0  0  0
   -5.9530   -6.9900   -2.6610 F   0  0  0  0  0  0  0  0  0  0  0  0
   -0.3980   -2.3460   -1.6570 H   0  0  0  0  0  0  0  0  0  0  0  0
    0.8080   -2.0130   -2.9230 H   0  0  0  0  0  0  0  0  0  0  0  0
   -2.4600    0.6020   -2.6890 H   0  0  0  0  0  0  0  0  0  0  0  0
   -2.4180   -0.7300   -1.5100 H   0  0  0  0  0  0  0  0  0  0  0  0
   -0.8320   -2.5210   -4.6890 H   0  0  0  0  0  0  0  0  0  0  0  0
   -0.7610   -3.8880   -3.5510 H   0  0  0  0  0  0  0  0  0  0  0  0
   -4.0000   -1.2990   -3.3190 H   0  0  0  0  0  0  0  0  0  0  0  0
   -2.7530   -0.9840   -4.5500 H   0  0  0  0  0  0  0  0  0  0  0  0
   -5.1370   -2.6360   -3.1310 H   0  0  0  0  0  0  0  0  0  0  0  0
   -1.8000   -5.3050   -3.3730 H   0  0  0  0  0  0  0  0  0  0  0  0
    2.5580    1.3690   -0.3150 H   0  0  0  0  0  0  0  0  0  0  0  0
    3.1100    0.4360    1.0970 H   0  0  0  0  0  0  0  0  0  0  0  0
    2.3670    2.0370    1.3240 H   0  0  0  0  0  0  0  0  0  0  0  0
   -2.4150   -1.2560    2.4990 H   0  0  0  0  0  0  0  0  0  0  0  0
   -1.6300   -0.0950    3.5960 H   0  0  0  0  0  0  0  0  0  0  0  0
   -0.9250   -1.7120    3.3600 H   0  0  0  0  0  0  0  0  0  0  0  0
   -6.6390   -4.5520   -2.7660 H   0  0  0  0  0  0  0  0  0  0  0  0
   -3.3080   -7.2140   -3.0060 H   0  0  0  0  0  0  0  0  0  0  0  0
  1  2  1  0  0  0  0
  1  7  1  0  0  0  0
  1  9  2  0  0  0  0
  1 10  2  0  0  0  0
  2  3  2  0  0  0  0
  2  4  1  0  0  0  0
  3  6  1  0  0  0  0
  3 16  1  0  0  0  0
  4  5  2  0  0  0  0
  4 19  1  0  0  0  0
  5  6  1  0  0  0  0
  6 20  1  0  0  0  0
  7 11  1  0  0  0  0
  7 12  1  0  0  0  0
  8 13  1  0  0  0  0
  8 14  1  0  0  0  0
  8 15  1  0  0  0  0
 11 14  1  0  0  0  0
 11 25  1  0  0  0  0
 11 26  1  0  0  0  0
 12 15  1  0  0  0  0
 12 27  1  0  0  0  0
 12 28  1  0  0  0  0
 13 17  2  0  0  0  0
 13 18  1  0  0  0  0
 14 29  1  0  0  0  0
 14 30  1  0  0  0  0
 15 31  1  0  0  0  0
 15 32  1  0  0  0  0
 17 22  1  0  0  0  0
 17 33  1  0  0  0  0
 18 23  2  0  0  0  0
 18 34  1  0  0  0  0
 19 35  1  0  0  0  0
 19 36  1  0  0  0  0
 19 37  1  0  0  0  0
 20 38  1  0  0  0  0
 20 39  1  0  0  0  0
 20 40  1  0  0  0  0
 21 22  2  0  0  0  0
 21 23  1  0  0  0  0
 21 24  1  0  0  0  0
 22 41  1  0  0  0  0
 23 42  1  0  0  0  0
M  END
>  <$CLUSTER>
693

>  <INDEX>
469101

$$$$
Tripos 1534-10080
  MOE2020           3D

 45 47  0  0  0  0  0  0  0  0999 V2000
    0.2300    0.3660    0.2930 C   0  0  0  0  0  0  0  0  0  0  0  0
   -1.0650    0.7530   -0.0620 C   0  0  0  0  0  0  0  0  0  0  0  0
    0.6890   -0.8770   -0.1660 C   0  0  0  0  0  0  0  0  0  0  0  0
   -1.8830   -0.0590   -0.8450 C   0  0  0  0  0  0  0  0  0  0  0  0
   -1.4100   -1.2910   -1.2920 C   0  0  0  0  0  0  0  0  0  0  0  0
   -0.1210   -1.6990   -0.9510 C   0  0  0  0  0  0  0  0  0  0  0  0
    7.9100    0.2160    6.2740 C   0  0  0  0  0  0  0  0  0  0  0  0
    6.5710    0.0610    5.8090 N   0  0  0  0  0  0  0  0  0  0  0  0
    4.1660    1.6680    2.6830 N   0  0  0  0  0  0  0  0  0  0  0  0
    2.8820    1.9730    2.2890 C   0  0  0  0  0  0  0  0  0  0  0  0
    0.9290    1.2790    1.0770 O   0  0  0  0  0  0  0  0  0  0  0  0
    6.1980    0.7170    4.5530 C   0  0  0  0  0  0  0  0  0  0  0  0
    8.2600   -0.4210    7.4390 O   0  0  0  0  0  0  0  0  0  0  0  0
    2.2590    0.9140    1.4600 C   0  0  0  0  0  0  0  0  0  0  0  0
    5.4030   -0.2370    3.6600 C   0  0  0  0  0  0  0  0  0  0  0  0
    5.3830    1.9820    4.8260 C   0  0  0  0  0  0  0  0  0  0  0  0
    4.9390    0.4620    2.3790 C   0  0  0  0  0  0  0  0  0  0  0  0
    4.9280    2.6440    3.5280 C   0  0  0  0  0  0  0  0  0  0  0  0
    8.7580    0.8900    5.6880 O   0  0  0  0  0  0  0  0  0  0  0  0
    2.3150    3.0280    2.6020 O   0  0  0  0  0  0  0  0  0  0  0  0
    1.9180   -1.3220    0.1300 F   0  0  0  0  0  0  0  0  0  0  0  0
   -2.2460   -2.0130   -2.0350 F   0  0  0  0  0  0  0  0  0  0  0  0
    0.4150   -2.8600   -1.3340 F   0  0  0  0  0  0  0  0  0  0  0  0
   -1.5470    1.9350    0.3550 F   0  0  0  0  0  0  0  0  0  0  0  0
   -3.1230    0.2660   -1.2090 F   0  0  0  0  0  0  0  0  0  0  0  0
    5.5980   -0.7130    6.5680 C   0  0  0  0  0  0  0  0  0  0  0  0
    5.9390   -0.7870    8.0380 C   0  0  0  0  0  0  0  0  0  0  0  0
    7.3580   -1.2850    8.1520 C   0  0  0  0  0  0  0  0  0  0  0  0
    7.1150    0.9980    4.0340 H   0  0  0  0  0  0  0  0  0  0  0  0
    2.2230   -0.0130    2.0330 H   0  0  0  0  0  0  0  0  0  0  0  0
    2.8600    0.7640    0.5630 H   0  0  0  0  0  0  0  0  0  0  0  0
    4.5300   -0.5920    4.2080 H   0  0  0  0  0  0  0  0  0  0  0  0
    6.0350   -1.0850    3.3940 H   0  0  0  0  0  0  0  0  0  0  0  0
    5.9980    2.6860    5.3860 H   0  0  0  0  0  0  0  0  0  0  0  0
    4.5050    1.7180    5.4160 H   0  0  0  0  0  0  0  0  0  0  0  0
    5.8130    0.7390    1.7890 H   0  0  0  0  0  0  0  0  0  0  0  0
    4.3160   -0.2240    1.8050 H   0  0  0  0  0  0  0  0  0  0  0  0
    4.2860    3.4930    3.7640 H   0  0  0  0  0  0  0  0  0  0  0  0
    5.8020    2.9910    2.9760 H   0  0  0  0  0  0  0  0  0  0  0  0
    5.5650   -1.7250    6.1650 H   0  0  0  0  0  0  0  0  0  0  0  0
    4.6190   -0.2470    6.4590 H   0  0  0  0  0  0  0  0  0  0  0  0
    5.2620   -1.4760    8.5430 H   0  0  0  0  0  0  0  0  0  0  0  0
    5.8550    0.2020    8.4890 H   0  0  0  0  0  0  0  0  0  0  0  0
    7.6440   -1.3110    9.2030 H   0  0  0  0  0  0  0  0  0  0  0  0
    7.4190   -2.2900    7.7330 H   0  0  0  0  0  0  0  0  0  0  0  0
  1  2  2  0  0  0  0
  1  3  1  0  0  0  0
  1 11  1  0  0  0  0
  2  4  1  0  0  0  0
  2 24  1  0  0  0  0
  3  6  2  0  0  0  0
  3 21  1  0  0  0  0
  4  5  2  0  0  0  0
  4 25  1  0  0  0  0
  5  6  1  0  0  0  0
  5 22  1  0  0  0  0
  6 23  1  0  0  0  0
  7  8  1  0  0  0  0
  7 13  1  0  0  0  0
  7 19  2  0  0  0  0
  8 12  1  0  0  0  0
  8 26  1  0  0  0  0
  9 10  1  0  0  0  0
  9 17  1  0  0  0  0
  9 18  1  0  0  0  0
 10 14  1  0  0  0  0
 10 20  2  0  0  0  0
 11 14  1  0  0  0  0
 12 15  1  0  0  0  0
 12 16  1  0  0  0  0
 12 29  1  0  0  0  0
 13 28  1  0  0  0  0
 14 30  1  0  0  0  0
 14 31  1  0  0  0  0
 15 17  1  0  0  0  0
 15 32  1  0  0  0  0
 15 33  1  0  0  0  0
 16 18  1  0  0  0  0
 16 34  1  0  0  0  0
 16 35  1  0  0  0  0
 17 36  1  0  0  0  0
 17 37  1  0  0  0  0
 18 38  1  0  0  0  0
 18 39  1  0  0  0  0
 26 27  1  0  0  0  0
 26 40  1  0  0  0  0
 26 41  1  0  0  0  0
 27 28  1  0  0  0  0
 27 42  1  0  0  0  0
 27 43  1  0  0  0  0
 28 44  1  0  0  0  0
 28 45  1  0  0  0  0
M  END
>  <$CLUSTER>
694

>  <INDEX>
456434

$$$$
Tripos 1534-05651
  MOE2020           3D

 49 52  0  0  1  0  0  0  0  0999 V2000
   -1.1570    0.4180   -0.5200 N   0  0  0  0  0  0  0  0  0  0  0  0
   -1.2730    0.0030   -1.8340 C   0  0  0  0  0  0  0  0  0  0  0  0
   -0.8920    6.5430   -1.7120 C   0  0  0  0  0  0  0  0  0  0  0  0
   -2.0470    5.7540   -1.1480 C   0  0  0  0  0  0  0  0  0  0  0  0
   -1.1750    7.9310   -2.6340 S   0  0  0  0  0  0  0  0  0  0  0  0
   -1.7310    4.6500   -0.4170 N   0  0  0  0  0  0  0  0  0  0  0  0
   -0.8720   -0.6980    0.3510 C   0  0  1  0  0  0  0  0  0  0  0  0
   -1.1600   -1.3640   -1.8870 O   0  0  0  0  0  0  0  0  0  0  0  0
    0.4950    8.2010   -2.8650 C   0  0  0  0  0  0  0  0  0  0  0  0
    0.4630    6.2720   -1.5710 C   0  0  0  0  0  0  0  0  0  0  0  0
   -1.2000   -1.8820   -0.5460 C   0  0  0  0  0  0  0  0  0  0  0  0
   -1.2820    1.7920   -0.0180 C   0  0  0  0  0  0  0  0  0  0  0  0
    1.2610    7.2420   -2.2450 C   0  0  0  0  0  0  0  0  0  0  0  0
   -0.1990    2.7030   -0.5930 C   0  0  0  0  0  0  0  0  0  0  0  0
   -2.6760    2.3540   -0.2880 C   0  0  0  0  0  0  0  0  0  0  0  0
   -0.3900    4.1350   -0.1130 C   0  0  0  0  0  0  0  0  0  0  0  0
   -2.7710    3.8030    0.1810 C   0  0  0  0  0  0  0  0  0  0  0  0
   -1.4440    0.6960   -2.8270 O   0  0  0  0  0  0  0  0  0  0  0  0
   -3.2000    6.1340   -1.3680 O   0  0  0  0  0  0  0  0  0  0  0  0
    0.5560   -0.6940    0.8580 C   0  0  0  0  0  0  0  0  0  0  0  0
    1.0490    9.5940   -3.8100 S   0  0  0  0  0  0  0  0  0  0  0  0
    0.8000   -0.5490    2.2330 C   0  0  0  0  0  0  0  0  0  0  0  0
    1.6560   -0.8120   -0.0070 C   0  0  0  0  0  0  0  0  0  0  0  0
    2.7500    9.1550   -4.2210 C   0  0  0  0  0  0  0  0  0  0  0  0
    2.1050   -0.5280    2.7290 C   0  0  0  0  0  0  0  0  0  0  0  0
    2.9610   -0.7910    0.4910 C   0  0  0  0  0  0  0  0  0  0  0  0
    3.1850   -0.6490    1.8580 C   0  0  0  0  0  0  0  0  0  0  0  0
   -1.4440   -0.6950    1.2790 H   0  0  0  0  0  0  0  0  0  0  0  0
    0.8610    5.4330   -1.0200 H   0  0  0  0  0  0  0  0  0  0  0  0
   -2.1920   -2.2720   -0.3170 H   0  0  0  0  0  0  0  0  0  0  0  0
   -0.4610   -2.6730   -0.4200 H   0  0  0  0  0  0  0  0  0  0  0  0
   -1.1390    1.7580    1.0620 H   0  0  0  0  0  0  0  0  0  0  0  0
    2.3410    7.2260   -2.2660 H   0  0  0  0  0  0  0  0  0  0  0  0
    0.7790    2.3450   -0.2700 H   0  0  0  0  0  0  0  0  0  0  0  0
   -0.2530    2.6800   -1.6810 H   0  0  0  0  0  0  0  0  0  0  0  0
   -2.8790    2.3100   -1.3580 H   0  0  0  0  0  0  0  0  0  0  0  0
   -3.4130    1.7550    0.2470 H   0  0  0  0  0  0  0  0  0  0  0  0
    0.3490    4.7700   -0.6020 H   0  0  0  0  0  0  0  0  0  0  0  0
   -0.2390    4.1660    0.9660 H   0  0  0  0  0  0  0  0  0  0  0  0
   -2.6640    3.8290    1.2650 H   0  0  0  0  0  0  0  0  0  0  0  0
   -3.7480    4.1980   -0.0970 H   0  0  0  0  0  0  0  0  0  0  0  0
   -0.0320   -0.4530    2.9150 H   0  0  0  0  0  0  0  0  0  0  0  0
    1.4910   -0.9200   -1.0690 H   0  0  0  0  0  0  0  0  0  0  0  0
    3.1990    9.9530   -4.8120 H   0  0  0  0  0  0  0  0  0  0  0  0
    2.7570    8.2290   -4.7960 H   0  0  0  0  0  0  0  0  0  0  0  0
    3.3220    9.0170   -3.3030 H   0  0  0  0  0  0  0  0  0  0  0  0
    2.2770   -0.4180    3.7890 H   0  0  0  0  0  0  0  0  0  0  0  0
    3.7980   -0.8850   -0.1850 H   0  0  0  0  0  0  0  0  0  0  0  0
    4.1940   -0.6330    2.2420 H   0  0  0  0  0  0  0  0  0  0  0  0
  1  2  1  0  0  0  0
  1  7  1  0  0  0  0
  1 12  1  0  0  0  0
  2  8  1  0  0  0  0
  2 18  2  0  0  0  0
  3  4  1  0  0  0  0
  3  5  1  0  0  0  0
  3 10  2  0  0  0  0
  4  6  1  0  0  0  0
  4 19  2  0  0  0  0
  5  9  1  0  0  0  0
  6 16  1  0  0  0  0
  6 17  1  0  0  0  0
  7 11  1  0  0  0  0
  7 20  1  0  0  0  0
  7 28  1  0  0  0  0
  8 11  1  0  0  0  0
  9 13  2  0  0  0  0
  9 21  1  0  0  0  0
 10 13  1  0  0  0  0
 10 29  1  0  0  0  0
 11 30  1  0  0  0  0
 11 31  1  0  0  0  0
 12 14  1  0  0  0  0
 12 15  1  0  0  0  0
 12 32  1  0  0  0  0
 13 33  1  0  0  0  0
 14 16  1  0  0  0  0
 14 34  1  0  0  0  0
 14 35  1  0  0  0  0
 15 17  1  0  0  0  0
 15 36  1  0  0  0  0
 15 37  1  0  0  0  0
 16 38  1  0  0  0  0
 16 39  1  0  0  0  0
 17 40  1  0  0  0  0
 17 41  1  0  0  0  0
 20 22  2  0  0  0  0
 20 23  1  0  0  0  0
 21 24  1  0  0  0  0
 22 25  1  0  0  0  0
 22 42  1  0  0  0  0
 23 26  2  0  0  0  0
 23 43  1  0  0  0  0
 24 44  1  0  0  0  0
 24 45  1  0  0  0  0
 24 46  1  0  0  0  0
 25 27  2  0  0  0  0
 25 47  1  0  0  0  0
 26 27  1  0  0  0  0
 26 48  1  0  0  0  0
 27 49  1  0  0  0  0
M  END
>  <$CLUSTER>
695

>  <INDEX>
455659

$$$$
Tripos 1539-02275
  MOE2020           3D

 49 51  0  0  1  0  0  0  0  0999 V2000
    0.3450    0.6850    1.5920 N   0  0  0  0  0  0  0  0  0  0  0  0
    0.5700    0.6910    0.1500 C   0  0  3  0  0  0  0  0  0  0  0  0
   -0.2780   -0.3100   -0.6190 C   0  0  0  0  0  0  0  0  0  0  0  0
    0.2390    2.3880   -0.4000 S   0  0  0  0  0  0  0  0  0  0  0  0
    3.4030   -2.5760    3.1460 C   0  0  0  0  0  0  0  0  0  0  0  0
   -0.2610    1.8040    2.1580 C   0  0  0  0  0  0  0  0  0  0  0  0
    2.6870   -1.4760    3.6170 N   0  0  0  0  0  0  0  0  0  0  0  0
    0.2570   -1.0300   -1.7110 C   0  0  0  0  0  0  0  0  0  0  0  0
   -1.6290   -0.5120   -0.2750 C   0  0  0  0  0  0  0  0  0  0  0  0
   -0.5510   -1.9370   -2.4100 C   0  0  0  0  0  0  0  0  0  0  0  0
    0.7780   -0.4530    2.4010 C   0  0  0  0  0  0  0  0  0  0  0  0
   -2.4230   -1.4160   -0.9780 C   0  0  0  0  0  0  0  0  0  0  0  0
    3.6090   -3.4150    4.2500 N   0  0  0  0  0  0  0  0  0  0  0  0
   -1.8840   -2.1290   -2.0420 C   0  0  0  0  0  0  0  0  0  0  0  0
   -0.5830    2.8600    1.1300 C   0  0  0  0  0  0  0  0  0  0  0  0
    2.2420   -0.3380    2.7940 C   0  0  0  0  0  0  0  0  0  0  0  0
    3.7870   -2.7880    2.0050 O   0  0  0  0  0  0  0  0  0  0  0  0
   -0.5320    1.9520    3.3460 O   0  0  0  0  0  0  0  0  0  0  0  0
    1.5720   -0.7770   -2.0170 O   0  0  0  0  0  0  0  0  0  0  0  0
    3.0400   -2.8730    5.4560 C   0  0  0  0  0  0  0  0  0  0  0  0
   -3.7450   -1.6660   -0.6860 O   0  0  0  0  0  0  0  0  0  0  0  0
   -2.7390   -2.9980   -2.6850 O   0  0  0  0  0  0  0  0  0  0  0  0
    2.3770   -1.5730    5.0230 C   0  0  0  0  0  0  0  0  0  0  0  0
    2.1380   -1.4770   -3.1190 C   0  0  0  0  0  0  0  0  0  0  0  0
   -2.2230   -3.7420   -3.7820 C   0  0  0  0  0  0  0  0  0  0  0  0
   -4.3260   -0.9550    0.4010 C   0  0  0  0  0  0  0  0  0  0  0  0
    1.5940    0.3780   -0.0550 H   0  0  0  0  0  0  0  0  0  0  0  0
   -2.0560    0.0430    0.5470 H   0  0  0  0  0  0  0  0  0  0  0  0
   -0.1390   -2.4920   -3.2400 H   0  0  0  0  0  0  0  0  0  0  0  0
    0.6370   -1.3690    1.8270 H   0  0  0  0  0  0  0  0  0  0  0  0
    0.1710   -0.4950    3.3060 H   0  0  0  0  0  0  0  0  0  0  0  0
    4.0990   -4.2970    4.2050 H   0  0  0  0  0  0  0  0  0  0  0  0
   -1.6600    2.9120    0.9740 H   0  0  0  0  0  0  0  0  0  0  0  0
   -0.2180    3.8310    1.4650 H   0  0  0  0  0  0  0  0  0  0  0  0
    2.8470   -0.3020    1.8880 H   0  0  0  0  0  0  0  0  0  0  0  0
    2.3820    0.5820    3.3620 H   0  0  0  0  0  0  0  0  0  0  0  0
    3.8180   -2.6800    6.1950 H   0  0  0  0  0  0  0  0  0  0  0  0
    2.3040   -3.5590    5.8750 H   0  0  0  0  0  0  0  0  0  0  0  0
    1.2990   -1.6160    5.1800 H   0  0  0  0  0  0  0  0  0  0  0  0
    2.7900   -0.7260    5.5700 H   0  0  0  0  0  0  0  0  0  0  0  0
    3.1790   -1.1780   -3.2430 H   0  0  0  0  0  0  0  0  0  0  0  0
    1.5810   -1.2390   -4.0250 H   0  0  0  0  0  0  0  0  0  0  0  0
    2.0880   -2.5500   -2.9330 H   0  0  0  0  0  0  0  0  0  0  0  0
   -3.0070   -4.3820   -4.1880 H   0  0  0  0  0  0  0  0  0  0  0  0
   -1.3900   -4.3580   -3.4430 H   0  0  0  0  0  0  0  0  0  0  0  0
   -1.8770   -3.0560   -4.5550 H   0  0  0  0  0  0  0  0  0  0  0  0
   -5.3680   -1.2530    0.5140 H   0  0  0  0  0  0  0  0  0  0  0  0
   -4.2730    0.1160    0.2050 H   0  0  0  0  0  0  0  0  0  0  0  0
   -3.7820   -1.1840    1.3170 H   0  0  0  0  0  0  0  0  0  0  0  0
  1  2  1  0  0  0  0
  1  6  1  0  0  0  0
  1 11  1  0  0  0  0
  2  3  1  0  0  0  0
  2  4  1  0  0  0  0
  2 27  1  0  0  0  0
  3  8  2  0  0  0  0
  3  9  1  0  0  0  0
  4 15  1  0  0  0  0
  5  7  1  0  0  0  0
  5 13  1  0  0  0  0
  5 17  2  0  0  0  0
  6 15  1  0  0  0  0
  6 18  2  0  0  0  0
  7 16  1  0  0  0  0
  7 23  1  0  0  0  0
  8 10  1  0  0  0  0
  8 19  1  0  0  0  0
  9 12  2  0  0  0  0
  9 28  1  0  0  0  0
 10 14  2  0  0  0  0
 10 29  1  0  0  0  0
 11 16  1  0  0  0  0
 11 30  1  0  0  0  0
 11 31  1  0  0  0  0
 12 14  1  0  0  0  0
 12 21  1  0  0  0  0
 13 20  1  0  0  0  0
 13 32  1  0  0  0  0
 14 22  1  0  0  0  0
 15 33  1  0  0  0  0
 15 34  1  0  0  0  0
 16 35  1  0  0  0  0
 16 36  1  0  0  0  0
 19 24  1  0  0  0  0
 20 23  1  0  0  0  0
 20 37  1  0  0  0  0
 20 38  1  0  0  0  0
 21 26  1  0  0  0  0
 22 25  1  0  0  0  0
 23 39  1  0  0  0  0
 23 40  1  0  0  0  0
 24 41  1  0  0  0  0
 24 42  1  0  0  0  0
 24 43  1  0  0  0  0
 25 44  1  0  0  0  0
 25 45  1  0  0  0  0
 25 46  1  0  0  0  0
 26 47  1  0  0  0  0
 26 48  1  0  0  0  0
 26 49  1  0  0  0  0
M  END
>  <$CLUSTER>
696

>  <INDEX>
457361

$$$$
Tripos 1539-30042
  MOE2020           3D

 35 36  0  0  1  0  0  0  0  0999 V2000
   -1.2870    0.1300    0.6930 N   0  0  0  0  0  0  0  0  0  0  0  0
   -0.5020   -0.8780    0.0040 C   0  0  3  0  0  0  0  0  0  0  0  0
    0.0500   -2.0540    1.2740 S   0  0  0  0  0  0  0  0  0  0  0  0
   -1.2380    0.1480    2.0740 C   0  0  0  0  0  0  0  0  0  0  0  0
    0.6820   -0.3120   -0.7620 C   0  0  0  0  0  0  0  0  0  0  0  0
   -0.3470   -0.9400    2.6380 C   0  0  0  0  0  0  0  0  0  0  0  0
    1.0190   -0.8550   -2.0160 C   0  0  0  0  0  0  0  0  0  0  0  0
   -1.8330    0.9550    2.7830 O   0  0  0  0  0  0  0  0  0  0  0  0
   -2.1090    1.0660   -0.0690 C   0  0  0  0  0  0  0  0  0  0  0  0
    2.1060   -0.3640   -2.7420 C   0  0  0  0  0  0  0  0  0  0  0  0
    2.4980   -1.0260   -4.2610 Cl  0  0  0  0  0  0  0  0  0  0  0  0
    1.4820    0.7320   -0.2550 C   0  0  0  0  0  0  0  0  0  0  0  0
   -7.3850   -1.3940    1.5370 O   0  0  0  0  0  0  0  0  0  0  0  0
    2.5680    1.2200   -0.9840 C   0  0  0  0  0  0  0  0  0  0  0  0
   -4.1760    0.0900    0.7750 O   0  0  0  0  0  0  0  0  0  0  0  0
    2.8790    0.6740   -2.2260 C   0  0  0  0  0  0  0  0  0  0  0  0
   -3.4680    0.4770   -0.4130 C   0  0  0  0  0  0  0  0  0  0  0  0
   -6.1020   -0.8350    1.8060 C   0  0  0  0  0  0  0  0  0  0  0  0
   -5.4300   -0.4570    0.5010 C   0  0  0  0  0  0  0  0  0  0  0  0
   -1.1190   -1.3550   -0.7580 H   0  0  0  0  0  0  0  0  0  0  0  0
    0.5660   -0.5040    3.0430 H   0  0  0  0  0  0  0  0  0  0  0  0
   -0.8710   -1.4830    3.4250 H   0  0  0  0  0  0  0  0  0  0  0  0
    0.4290   -1.6630   -2.4220 H   0  0  0  0  0  0  0  0  0  0  0  0
   -1.5900    1.3190   -0.9940 H   0  0  0  0  0  0  0  0  0  0  0  0
   -2.2560    1.9690    0.5230 H   0  0  0  0  0  0  0  0  0  0  0  0
    1.2520    1.1600    0.7100 H   0  0  0  0  0  0  0  0  0  0  0  0
   -7.7840   -1.6230    2.3790 H   0  0  0  0  0  0  0  0  0  0  0  0
    3.1680    2.0230   -0.5830 H   0  0  0  0  0  0  0  0  0  0  0  0
    3.7180    1.0540   -2.7890 H   0  0  0  0  0  0  0  0  0  0  0  0
   -3.3270   -0.3990   -1.0460 H   0  0  0  0  0  0  0  0  0  0  0  0
   -4.0540    1.2230   -0.9500 H   0  0  0  0  0  0  0  0  0  0  0  0
   -5.4890   -1.5680    2.3310 H   0  0  0  0  0  0  0  0  0  0  0  0
   -6.2160    0.0540    2.4260 H   0  0  0  0  0  0  0  0  0  0  0  0
   -5.3130   -1.3450   -0.1200 H   0  0  0  0  0  0  0  0  0  0  0  0
   -6.0410    0.2760   -0.0250 H   0  0  0  0  0  0  0  0  0  0  0  0
  1  2  1  0  0  0  0
  1  4  1  0  0  0  0
  1  9  1  0  0  0  0
  2  3  1  0  0  0  0
  2  5  1  0  0  0  0
  2 20  1  0  0  0  0
  3  6  1  0  0  0  0
  4  6  1  0  0  0  0
  4  8  2  0  0  0  0
  5  7  2  0  0  0  0
  5 12  1  0  0  0  0
  6 21  1  0  0  0  0
  6 22  1  0  0  0  0
  7 10  1  0  0  0  0
  7 23  1  0  0  0  0
  9 17  1  0  0  0  0
  9 24  1  0  0  0  0
  9 25  1  0  0  0  0
 10 11  1  0  0  0  0
 10 16  2  0  0  0  0
 12 14  2  0  0  0  0
 12 26  1  0  0  0  0
 13 18  1  0  0  0  0
 13 27  1  0  0  0  0
 14 16  1  0  0  0  0
 14 28  1  0  0  0  0
 15 17  1  0  0  0  0
 15 19  1  0  0  0  0
 16 29  1  0  0  0  0
 17 30  1  0  0  0  0
 17 31  1  0  0  0  0
 18 19  1  0  0  0  0
 18 32  1  0  0  0  0
 18 33  1  0  0  0  0
 19 34  1  0  0  0  0
 19 35  1  0  0  0  0
M  END
>  <$CLUSTER>
697

>  <INDEX>
459221

$$$$
Tripos 1539-23951
  MOE2020           3D

 41 44  0  0  1  0  0  0  0  0999 V2000
   -0.3970    0.0650   -1.0920 N   0  0  0  0  0  0  0  0  0  0  0  0
    0.1620    0.4170    1.2380 C   0  0  0  0  0  0  0  0  0  0  0  0
    0.3640    0.8840   -0.1600 C   0  0  3  0  0  0  0  0  0  0  0  0
    0.2290   -0.9210    1.5740 N   0  0  0  0  0  0  0  0  0  0  0  0
    0.0030   -0.9650    2.8670 C   0  0  0  0  0  0  0  0  0  0  0  0
    2.0960    0.7190   -0.6510 S   0  0  0  0  0  0  0  0  0  0  0  0
   -1.8480    0.2080   -1.1910 C   0  0  0  0  0  0  0  0  0  0  0  0
    0.3150   -0.8330   -1.8860 C   0  0  0  0  0  0  0  0  0  0  0  0
   -2.2370    1.3480   -2.1160 C   0  0  0  0  0  0  0  0  0  0  0  0
   -0.2080    0.2810    3.3860 N   0  0  0  0  0  0  0  0  0  0  0  0
   -3.7400    3.1980   -2.6250 C   0  0  0  0  0  0  0  0  0  0  0  0
   -3.3160    2.1750   -1.7800 C   0  0  0  0  0  0  0  0  0  0  0  0
   -0.1110    1.1760    2.3590 C   0  0  0  0  0  0  0  0  0  0  0  0
    1.8000   -0.7660   -1.6250 C   0  0  0  0  0  0  0  0  0  0  0  0
   -3.0900    3.4030   -3.8410 C   0  0  0  0  0  0  0  0  0  0  0  0
   -1.6090    1.5540   -3.3520 C   0  0  0  0  0  0  0  0  0  0  0  0
   -0.0070   -2.1830    3.6190 C   0  0  0  0  0  0  0  0  0  0  0  0
   -0.1680   -1.6130   -2.7030 O   0  0  0  0  0  0  0  0  0  0  0  0
   -2.0260    2.5790   -4.2060 C   0  0  0  0  0  0  0  0  0  0  0  0
   -4.7510    4.0210   -2.3490 F   0  0  0  0  0  0  0  0  0  0  0  0
   -3.9720    1.9910   -0.6250 F   0  0  0  0  0  0  0  0  0  0  0  0
   -3.5450    4.4040   -4.5940 F   0  0  0  0  0  0  0  0  0  0  0  0
   -0.5610   -2.2370    4.9020 C   0  0  0  0  0  0  0  0  0  0  0  0
    0.5400   -3.3440    3.0580 C   0  0  0  0  0  0  0  0  0  0  0  0
    0.5410   -4.5430    3.7750 C   0  0  0  0  0  0  0  0  0  0  0  0
   -0.5590   -3.4380    5.6190 C   0  0  0  0  0  0  0  0  0  0  0  0
   -0.0070   -4.5900    5.0570 C   0  0  0  0  0  0  0  0  0  0  0  0
    0.0420    1.9250   -0.1900 H   0  0  0  0  0  0  0  0  0  0  0  0
   -2.2520    0.4050   -0.1980 H   0  0  0  0  0  0  0  0  0  0  0  0
   -2.2690   -0.7200   -1.5770 H   0  0  0  0  0  0  0  0  0  0  0  0
   -0.4010    0.5000    4.3530 H   0  0  0  0  0  0  0  0  0  0  0  0
   -0.2240    2.2490    2.4120 H   0  0  0  0  0  0  0  0  0  0  0  0
    2.1230   -1.6480   -1.0710 H   0  0  0  0  0  0  0  0  0  0  0  0
    2.3440   -0.7100   -2.5680 H   0  0  0  0  0  0  0  0  0  0  0  0
   -0.7920    0.9120   -3.6480 H   0  0  0  0  0  0  0  0  0  0  0  0
   -1.5240    2.7330   -5.1500 H   0  0  0  0  0  0  0  0  0  0  0  0
   -0.9920   -1.3490    5.3400 H   0  0  0  0  0  0  0  0  0  0  0  0
    0.9640   -3.3120    2.0650 H   0  0  0  0  0  0  0  0  0  0  0  0
    0.9660   -5.4340    3.3370 H   0  0  0  0  0  0  0  0  0  0  0  0
   -0.9860   -3.4740    6.6100 H   0  0  0  0  0  0  0  0  0  0  0  0
   -0.0040   -5.5160    5.6130 H   0  0  0  0  0  0  0  0  0  0  0  0
  1  3  1  0  0  0  0
  1  7  1  0  0  0  0
  1  8  1  0  0  0  0
  2  3  1  0  0  0  0
  2  4  1  0  0  0  0
  2 13  2  0  0  0  0
  3  6  1  0  0  0  0
  3 28  1  0  0  0  0
  4  5  2  0  0  0  0
  5 10  1  0  0  0  0
  5 17  1  0  0  0  0
  6 14  1  0  0  0  0
  7  9  1  0  0  0  0
  7 29  1  0  0  0  0
  7 30  1  0  0  0  0
  8 14  1  0  0  0  0
  8 18  2  0  0  0  0
  9 12  2  0  0  0  0
  9 16  1  0  0  0  0
 10 13  1  0  0  0  0
 10 31  1  0  0  0  0
 11 12  1  0  0  0  0
 11 15  2  0  0  0  0
 11 20  1  0  0  0  0
 12 21  1  0  0  0  0
 13 32  1  0  0  0  0
 14 33  1  0  0  0  0
 14 34  1  0  0  0  0
 15 19  1  0  0  0  0
 15 22  1  0  0  0  0
 16 19  2  0  0  0  0
 16 35  1  0  0  0  0
 17 23  1  0  0  0  0
 17 24  2  0  0  0  0
 19 36  1  0  0  0  0
 23 26  2  0  0  0  0
 23 37  1  0  0  0  0
 24 25  1  0  0  0  0
 24 38  1  0  0  0  0
 25 27  2  0  0  0  0
 25 39  1  0  0  0  0
 26 27  1  0  0  0  0
 26 40  1  0  0  0  0
 27 41  1  0  0  0  0
M  END
>  <$CLUSTER>
698

>  <INDEX>
458208

$$$$
Tripos 1539-35661
  MOE2020           3D

 45 48  0  0  1  0  0  0  0  0999 V2000
    1.1230   -0.3000    0.2240 N   0  0  0  0  0  0  0  0  0  0  0  0
   -1.1920   -0.0080   -0.4170 C   0  0  0  0  0  0  0  0  0  0  0  0
   -0.2480   -0.7130    0.4870 C   0  0  3  0  0  0  0  0  0  0  0  0
   -0.5740   -0.2920    2.2140 S   0  0  0  0  0  0  0  0  0  0  0  0
   -2.1260   -0.7920   -1.0330 O   0  0  0  0  0  0  0  0  0  0  0  0
   -1.3560    1.3080   -0.8060 C   0  0  0  0  0  0  0  0  0  0  0  0
    1.7370    0.5260    1.1630 C   0  0  0  0  0  0  0  0  0  0  0  0
   -2.8820    0.0280   -1.8090 C   0  0  0  0  0  0  0  0  0  0  0  0
   -2.4490    1.3280   -1.7040 C   0  0  0  0  0  0  0  0  0  0  0  0
    0.8310    0.8290    2.3310 C   0  0  0  0  0  0  0  0  0  0  0  0
    2.8730    0.9860    1.0850 O   0  0  0  0  0  0  0  0  0  0  0  0
    1.8190   -0.7650   -0.9740 C   0  0  0  0  0  0  0  0  0  0  0  0
    1.8420   -4.3650   -0.1660 C   0  0  0  0  0  0  0  0  0  0  0  0
    2.3850   -7.0640    0.3570 C   0  0  0  0  0  0  0  0  0  0  0  0
    0.8110   -5.2410    0.1910 C   0  0  0  0  0  0  0  0  0  0  0  0
    3.4170   -6.1980    0.0030 C   0  0  0  0  0  0  0  0  0  0  0  0
    3.1490   -4.8510   -0.2590 C   0  0  0  0  0  0  0  0  0  0  0  0
    1.0800   -6.5860    0.4520 C   0  0  0  0  0  0  0  0  0  0  0  0
    1.4520   -3.1030   -0.3910 O   0  0  0  0  0  0  0  0  0  0  0  0
    2.4440   -2.1340   -0.7630 C   0  0  0  0  0  0  0  0  0  0  0  0
    2.7790   -8.3620    0.5880 O   0  0  0  0  0  0  0  0  0  0  0  0
   -3.9540   -0.3860   -2.6090 C   0  0  0  0  0  0  0  0  0  0  0  0
   -3.1170    2.3290   -2.4430 C   0  0  0  0  0  0  0  0  0  0  0  0
    1.7620   -9.2870    0.9540 C   0  0  0  0  0  0  0  0  0  0  0  0
   -4.1960    1.9500   -3.2550 C   0  0  0  0  0  0  0  0  0  0  0  0
   -4.6050    0.6170   -3.3340 C   0  0  0  0  0  0  0  0  0  0  0  0
   -0.3830   -1.7800    0.3080 H   0  0  0  0  0  0  0  0  0  0  0  0
   -0.7660    2.1540   -0.4870 H   0  0  0  0  0  0  0  0  0  0  0  0
    1.3620    0.6660    3.2690 H   0  0  0  0  0  0  0  0  0  0  0  0
    0.4900    1.8630    2.2810 H   0  0  0  0  0  0  0  0  0  0  0  0
    2.6050   -0.0530   -1.2250 H   0  0  0  0  0  0  0  0  0  0  0  0
    1.1060   -0.8250   -1.7960 H   0  0  0  0  0  0  0  0  0  0  0  0
   -0.2020   -4.8740    0.2650 H   0  0  0  0  0  0  0  0  0  0  0  0
    4.4290   -6.5690   -0.0690 H   0  0  0  0  0  0  0  0  0  0  0  0
    3.9530   -4.1850   -0.5340 H   0  0  0  0  0  0  0  0  0  0  0  0
    0.2780   -7.2550    0.7270 H   0  0  0  0  0  0  0  0  0  0  0  0
    3.1900   -2.0670    0.0290 H   0  0  0  0  0  0  0  0  0  0  0  0
    2.9240   -2.4530   -1.6880 H   0  0  0  0  0  0  0  0  0  0  0  0
   -4.2600   -1.4200   -2.6630 H   0  0  0  0  0  0  0  0  0  0  0  0
   -2.8050    3.3610   -2.3840 H   0  0  0  0  0  0  0  0  0  0  0  0
    2.2040  -10.2710    1.1070 H   0  0  0  0  0  0  0  0  0  0  0  0
    1.0180   -9.3420    0.1590 H   0  0  0  0  0  0  0  0  0  0  0  0
    1.2840   -8.9560    1.8760 H   0  0  0  0  0  0  0  0  0  0  0  0
   -4.7190    2.7010   -3.8280 H   0  0  0  0  0  0  0  0  0  0  0  0
   -5.4400    0.3560   -3.9670 H   0  0  0  0  0  0  0  0  0  0  0  0
  1  3  1  0  0  0  0
  1  7  1  0  0  0  0
  1 12  1  0  0  0  0
  2  3  1  0  0  0  0
  2  5  1  0  0  0  0
  2  6  2  0  0  0  0
  3  4  1  0  0  0  0
  3 27  1  0  0  0  0
  4 10  1  0  0  0  0
  5  8  1  0  0  0  0
  6  9  1  0  0  0  0
  6 28  1  0  0  0  0
  7 10  1  0  0  0  0
  7 11  2  0  0  0  0
  8  9  2  0  0  0  0
  8 22  1  0  0  0  0
  9 23  1  0  0  0  0
 10 29  1  0  0  0  0
 10 30  1  0  0  0  0
 12 20  1  0  0  0  0
 12 31  1  0  0  0  0
 12 32  1  0  0  0  0
 13 15  1  0  0  0  0
 13 17  2  0  0  0  0
 13 19  1  0  0  0  0
 14 16  2  0  0  0  0
 14 18  1  0  0  0  0
 14 21  1  0  0  0  0
 15 18  2  0  0  0  0
 15 33  1  0  0  0  0
 16 17  1  0  0  0  0
 16 34  1  0  0  0  0
 17 35  1  0  0  0  0
 18 36  1  0  0  0  0
 19 20  1  0  0  0  0
 20 37  1  0  0  0  0
 20 38  1  0  0  0  0
 21 24  1  0  0  0  0
 22 26  2  0  0  0  0
 22 39  1  0  0  0  0
 23 25  2  0  0  0  0
 23 40  1  0  0  0  0
 24 41  1  0  0  0  0
 24 42  1  0  0  0  0
 24 43  1  0  0  0  0
 25 26  1  0  0  0  0
 25 44  1  0  0  0  0
 26 45  1  0  0  0  0
M  END
>  <$CLUSTER>
699

>  <INDEX>
460534

$$$$
Tripos 1539-02263
  MOE2020           3D

 46 48  0  0  1  0  0  0  0  0999 V2000
    0.3450    0.6850    1.5920 N   0  0  0  0  0  0  0  0  0  0  0  0
    0.5700    0.6910    0.1500 C   0  0  3  0  0  0  0  0  0  0  0  0
   -0.2780   -0.3100   -0.6190 C   0  0  0  0  0  0  0  0  0  0  0  0
    0.2390    2.3880   -0.4000 S   0  0  0  0  0  0  0  0  0  0  0  0
   -0.2610    1.8040    2.1580 C   0  0  0  0  0  0  0  0  0  0  0  0
    0.2570   -1.0300   -1.7110 C   0  0  0  0  0  0  0  0  0  0  0  0
   -1.6290   -0.5120   -0.2750 C   0  0  0  0  0  0  0  0  0  0  0  0
    2.2420   -0.3380    2.7940 C   0  0  0  0  0  0  0  0  0  0  0  0
   -0.5510   -1.9370   -2.4100 C   0  0  0  0  0  0  0  0  0  0  0  0
    0.7780   -0.4530    2.4010 C   0  0  0  0  0  0  0  0  0  0  0  0
    2.4860    0.3450    3.9360 O   0  0  0  0  0  0  0  0  0  0  0  0
   -2.4230   -1.4160   -0.9780 C   0  0  0  0  0  0  0  0  0  0  0  0
   -1.8840   -2.1290   -2.0420 C   0  0  0  0  0  0  0  0  0  0  0  0
   -0.5830    2.8600    1.1300 C   0  0  0  0  0  0  0  0  0  0  0  0
    3.8360    0.3410    4.0860 C   0  0  0  0  0  0  0  0  0  0  0  0
    3.3900   -0.7630    2.2000 C   0  0  0  0  0  0  0  0  0  0  0  0
    4.4370   -0.3270    3.0460 C   0  0  0  0  0  0  0  0  0  0  0  0
   -0.5320    1.9520    3.3460 O   0  0  0  0  0  0  0  0  0  0  0  0
    1.5720   -0.7770   -2.0170 O   0  0  0  0  0  0  0  0  0  0  0  0
   -3.7450   -1.6660   -0.6860 O   0  0  0  0  0  0  0  0  0  0  0  0
   -2.7390   -2.9980   -2.6850 O   0  0  0  0  0  0  0  0  0  0  0  0
    4.4470    0.9640    5.1960 C   0  0  0  0  0  0  0  0  0  0  0  0
    2.1380   -1.4770   -3.1190 C   0  0  0  0  0  0  0  0  0  0  0  0
   -2.2230   -3.7420   -3.7820 C   0  0  0  0  0  0  0  0  0  0  0  0
   -4.3260   -0.9550    0.4010 C   0  0  0  0  0  0  0  0  0  0  0  0
    1.5940    0.3780   -0.0550 H   0  0  0  0  0  0  0  0  0  0  0  0
   -2.0560    0.0430    0.5470 H   0  0  0  0  0  0  0  0  0  0  0  0
   -0.1390   -2.4920   -3.2400 H   0  0  0  0  0  0  0  0  0  0  0  0
    0.6370   -1.3690    1.8270 H   0  0  0  0  0  0  0  0  0  0  0  0
    0.1710   -0.4950    3.3060 H   0  0  0  0  0  0  0  0  0  0  0  0
   -1.6600    2.9120    0.9740 H   0  0  0  0  0  0  0  0  0  0  0  0
   -0.2180    3.8310    1.4650 H   0  0  0  0  0  0  0  0  0  0  0  0
    3.4830   -1.3160    1.2770 H   0  0  0  0  0  0  0  0  0  0  0  0
    5.4960   -0.4870    2.9030 H   0  0  0  0  0  0  0  0  0  0  0  0
    3.6800    1.4030    5.8340 H   0  0  0  0  0  0  0  0  0  0  0  0
    5.1210    1.7470    4.8480 H   0  0  0  0  0  0  0  0  0  0  0  0
    5.0120    0.2240    5.7630 H   0  0  0  0  0  0  0  0  0  0  0  0
    3.1790   -1.1780   -3.2430 H   0  0  0  0  0  0  0  0  0  0  0  0
    1.5810   -1.2390   -4.0250 H   0  0  0  0  0  0  0  0  0  0  0  0
    2.0880   -2.5500   -2.9330 H   0  0  0  0  0  0  0  0  0  0  0  0
   -3.0070   -4.3820   -4.1880 H   0  0  0  0  0  0  0  0  0  0  0  0
   -1.3900   -4.3580   -3.4430 H   0  0  0  0  0  0  0  0  0  0  0  0
   -1.8770   -3.0560   -4.5550 H   0  0  0  0  0  0  0  0  0  0  0  0
   -5.3680   -1.2530    0.5140 H   0  0  0  0  0  0  0  0  0  0  0  0
   -4.2730    0.1160    0.2050 H   0  0  0  0  0  0  0  0  0  0  0  0
   -3.7820   -1.1840    1.3170 H   0  0  0  0  0  0  0  0  0  0  0  0
  1  2  1  0  0  0  0
  1  5  1  0  0  0  0
  1 10  1  0  0  0  0
  2  3  1  0  0  0  0
  2  4  1  0  0  0  0
  2 26  1  0  0  0  0
  3  6  2  0  0  0  0
  3  7  1  0  0  0  0
  4 14  1  0  0  0  0
  5 14  1  0  0  0  0
  5 18  2  0  0  0  0
  6  9  1  0  0  0  0
  6 19  1  0  0  0  0
  7 12  2  0  0  0  0
  7 27  1  0  0  0  0
  8 10  1  0  0  0  0
  8 11  1  0  0  0  0
  8 16  2  0  0  0  0
  9 13  2  0  0  0  0
  9 28  1  0  0  0  0
 10 29  1  0  0  0  0
 10 30  1  0  0  0  0
 11 15  1  0  0  0  0
 12 13  1  0  0  0  0
 12 20  1  0  0  0  0
 13 21  1  0  0  0  0
 14 31  1  0  0  0  0
 14 32  1  0  0  0  0
 15 17  2  0  0  0  0
 15 22  1  0  0  0  0
 16 17  1  0  0  0  0
 16 33  1  0  0  0  0
 17 34  1  0  0  0  0
 19 23  1  0  0  0  0
 20 25  1  0  0  0  0
 21 24  1  0  0  0  0
 22 35  1  0  0  0  0
 22 36  1  0  0  0  0
 22 37  1  0  0  0  0
 23 38  1  0  0  0  0
 23 39  1  0  0  0  0
 23 40  1  0  0  0  0
 24 41  1  0  0  0  0
 24 42  1  0  0  0  0
 24 43  1  0  0  0  0
 25 44  1  0  0  0  0
 25 45  1  0  0  0  0
 25 46  1  0  0  0  0
M  END
>  <$CLUSTER>
700

>  <INDEX>
457354

$$$$
Tripos 1539-29420
  MOE2020           3D

 49 51  0  0  1  0  0  0  0  0999 V2000
    0.3450    0.6850    1.5920 N   0  0  0  0  0  0  0  0  0  0  0  0
    0.5700    0.6910    0.1500 C   0  0  3  0  0  0  0  0  0  0  0  0
   -0.2780   -0.3100   -0.6190 C   0  0  0  0  0  0  0  0  0  0  0  0
    0.2390    2.3880   -0.4000 S   0  0  0  0  0  0  0  0  0  0  0  0
   -0.2610    1.8040    2.1580 C   0  0  0  0  0  0  0  0  0  0  0  0
    0.7780   -0.4530    2.4010 C   0  0  0  0  0  0  0  0  0  0  0  0
    2.2420   -0.3380    2.7940 C   0  0  0  0  0  0  0  0  0  0  0  0
    2.9320   -1.5100    3.2400 C   0  0  0  0  0  0  0  0  0  0  0  0
   -0.5830    2.8600    1.1300 C   0  0  0  0  0  0  0  0  0  0  0  0
    4.2740   -1.4230    3.6500 C   0  0  0  0  0  0  0  0  0  0  0  0
    0.2570   -1.0300   -1.7110 C   0  0  0  0  0  0  0  0  0  0  0  0
   -0.5320    1.9520    3.3460 O   0  0  0  0  0  0  0  0  0  0  0  0
    2.9360    0.8780    2.8290 C   0  0  0  0  0  0  0  0  0  0  0  0
    4.9370   -0.1950    3.6440 C   0  0  0  0  0  0  0  0  0  0  0  0
   -1.6290   -0.5120   -0.2750 C   0  0  0  0  0  0  0  0  0  0  0  0
    4.2670    0.9550    3.2380 C   0  0  0  0  0  0  0  0  0  0  0  0
    2.1920   -2.6900    3.2390 O   0  0  0  0  0  0  0  0  0  0  0  0
    1.5720   -0.7770   -2.0170 O   0  0  0  0  0  0  0  0  0  0  0  0
    6.2360    0.0020    4.0340 O   0  0  0  0  0  0  0  0  0  0  0  0
   -0.5510   -1.9370   -2.4100 C   0  0  0  0  0  0  0  0  0  0  0  0
    2.1380   -1.4770   -3.1190 C   0  0  0  0  0  0  0  0  0  0  0  0
    2.8670   -3.8800    3.6680 C   0  0  0  0  0  0  0  0  0  0  0  0
    6.9630   -1.1420    4.4660 C   0  0  0  0  0  0  0  0  0  0  0  0
   -2.4230   -1.4160   -0.9780 C   0  0  0  0  0  0  0  0  0  0  0  0
    3.5590   -1.1060   -3.3320 C   0  0  0  0  0  0  0  0  0  0  0  0
   -1.8840   -2.1290   -2.0420 C   0  0  0  0  0  0  0  0  0  0  0  0
    1.5940    0.3780   -0.0550 H   0  0  0  0  0  0  0  0  0  0  0  0
    0.6370   -1.3690    1.8270 H   0  0  0  0  0  0  0  0  0  0  0  0
    0.1710   -0.4950    3.3060 H   0  0  0  0  0  0  0  0  0  0  0  0
   -1.6600    2.9120    0.9740 H   0  0  0  0  0  0  0  0  0  0  0  0
   -0.2180    3.8310    1.4650 H   0  0  0  0  0  0  0  0  0  0  0  0
    4.7950   -2.3120    3.9720 H   0  0  0  0  0  0  0  0  0  0  0  0
    2.4260    1.7820    2.5310 H   0  0  0  0  0  0  0  0  0  0  0  0
   -2.0560    0.0430    0.5470 H   0  0  0  0  0  0  0  0  0  0  0  0
    4.7780    1.9070    3.2400 H   0  0  0  0  0  0  0  0  0  0  0  0
   -0.1390   -2.4920   -3.2400 H   0  0  0  0  0  0  0  0  0  0  0  0
    1.5710   -1.2370   -4.0190 H   0  0  0  0  0  0  0  0  0  0  0  0
    2.0770   -2.5480   -2.9260 H   0  0  0  0  0  0  0  0  0  0  0  0
    2.1800   -4.7250    3.6200 H   0  0  0  0  0  0  0  0  0  0  0  0
    3.2130   -3.7520    4.6930 H   0  0  0  0  0  0  0  0  0  0  0  0
    3.7210   -4.0680    3.0170 H   0  0  0  0  0  0  0  0  0  0  0  0
    7.9740   -0.8460    4.7450 H   0  0  0  0  0  0  0  0  0  0  0  0
    7.0080   -1.8710    3.6570 H   0  0  0  0  0  0  0  0  0  0  0  0
    6.4640   -1.5860    5.3270 H   0  0  0  0  0  0  0  0  0  0  0  0
   -3.4550   -1.5620   -0.6960 H   0  0  0  0  0  0  0  0  0  0  0  0
    3.6300   -0.0360   -3.5260 H   0  0  0  0  0  0  0  0  0  0  0  0
    3.9540   -1.6570   -4.1860 H   0  0  0  0  0  0  0  0  0  0  0  0
    4.1360   -1.3530   -2.4410 H   0  0  0  0  0  0  0  0  0  0  0  0
   -2.4970   -2.8330   -2.5850 H   0  0  0  0  0  0  0  0  0  0  0  0
  1  2  1  0  0  0  0
  1  5  1  0  0  0  0
  1  6  1  0  0  0  0
  2  3  1  0  0  0  0
  2  4  1  0  0  0  0
  2 27  1  0  0  0  0
  3 11  2  0  0  0  0
  3 15  1  0  0  0  0
  4  9  1  0  0  0  0
  5  9  1  0  0  0  0
  5 12  2  0  0  0  0
  6  7  1  0  0  0  0
  6 28  1  0  0  0  0
  6 29  1  0  0  0  0
  7  8  2  0  0  0  0
  7 13  1  0  0  0  0
  8 10  1  0  0  0  0
  8 17  1  0  0  0  0
  9 30  1  0  0  0  0
  9 31  1  0  0  0  0
 10 14  2  0  0  0  0
 10 32  1  0  0  0  0
 11 18  1  0  0  0  0
 11 20  1  0  0  0  0
 13 16  2  0  0  0  0
 13 33  1  0  0  0  0
 14 16  1  0  0  0  0
 14 19  1  0  0  0  0
 15 24  2  0  0  0  0
 15 34  1  0  0  0  0
 16 35  1  0  0  0  0
 17 22  1  0  0  0  0
 18 21  1  0  0  0  0
 19 23  1  0  0  0  0
 20 26  2  0  0  0  0
 20 36  1  0  0  0  0
 21 25  1  0  0  0  0
 21 37  1  0  0  0  0
 21 38  1  0  0  0  0
 22 39  1  0  0  0  0
 22 40  1  0  0  0  0
 22 41  1  0  0  0  0
 23 42  1  0  0  0  0
 23 43  1  0  0  0  0
 23 44  1  0  0  0  0
 24 26  1  0  0  0  0
 24 45  1  0  0  0  0
 25 46  1  0  0  0  0
 25 47  1  0  0  0  0
 25 48  1  0  0  0  0
 26 49  1  0  0  0  0
M  END
>  <$CLUSTER>
701

>  <INDEX>
459121

$$$$
Tripos 1539-25707
  MOE2020           3D

 34 36  0  0  1  0  0  0  0  0999 V2000
   -1.2870    0.1300    0.6930 N   0  0  0  0  0  0  0  0  0  0  0  0
   -0.5020   -0.8780    0.0040 C   0  0  3  0  0  0  0  0  0  0  0  0
    0.0500   -2.0540    1.2740 S   0  0  0  0  0  0  0  0  0  0  0  0
   -1.2380    0.1480    2.0740 C   0  0  0  0  0  0  0  0  0  0  0  0
   -5.9710   -0.6140   -1.0520 C   0  0  0  0  0  0  0  0  0  0  0  0
   -5.8440    0.2540    0.0330 C   0  0  0  0  0  0  0  0  0  0  0  0
   -4.8510   -0.9480   -1.8120 C   0  0  0  0  0  0  0  0  0  0  0  0
   -2.1090    1.0660   -0.0690 C   0  0  0  0  0  0  0  0  0  0  0  0
   -3.4680    0.4770   -0.4130 C   0  0  0  0  0  0  0  0  0  0  0  0
   -0.3470   -0.9400    2.6380 C   0  0  0  0  0  0  0  0  0  0  0  0
   -3.6020   -0.4090   -1.4920 C   0  0  0  0  0  0  0  0  0  0  0  0
   -4.5960    0.7950    0.3540 C   0  0  0  0  0  0  0  0  0  0  0  0
    0.6820   -0.3120   -0.7620 C   0  0  0  0  0  0  0  0  0  0  0  0
   -1.8330    0.9550    2.7830 O   0  0  0  0  0  0  0  0  0  0  0  0
   -7.1250   -1.1680   -1.4270 F   0  0  0  0  0  0  0  0  0  0  0  0
   -5.0560   -1.7880   -2.8280 F   0  0  0  0  0  0  0  0  0  0  0  0
   -6.8620    0.6200    0.8140 F   0  0  0  0  0  0  0  0  0  0  0  0
    1.0190   -0.8550   -2.0160 C   0  0  0  0  0  0  0  0  0  0  0  0
    1.4820    0.7320   -0.2550 C   0  0  0  0  0  0  0  0  0  0  0  0
    2.5680    1.2200   -0.9840 C   0  0  0  0  0  0  0  0  0  0  0  0
    2.1060   -0.3640   -2.7420 C   0  0  0  0  0  0  0  0  0  0  0  0
    2.8790    0.6740   -2.2260 C   0  0  0  0  0  0  0  0  0  0  0  0
   -1.1190   -1.3550   -0.7580 H   0  0  0  0  0  0  0  0  0  0  0  0
   -1.5900    1.3190   -0.9940 H   0  0  0  0  0  0  0  0  0  0  0  0
   -2.2560    1.9690    0.5230 H   0  0  0  0  0  0  0  0  0  0  0  0
    0.5660   -0.5040    3.0430 H   0  0  0  0  0  0  0  0  0  0  0  0
   -0.8710   -1.4830    3.4250 H   0  0  0  0  0  0  0  0  0  0  0  0
   -2.7350   -0.6760   -2.0790 H   0  0  0  0  0  0  0  0  0  0  0  0
   -4.5010    1.4620    1.1980 H   0  0  0  0  0  0  0  0  0  0  0  0
    0.4290   -1.6630   -2.4220 H   0  0  0  0  0  0  0  0  0  0  0  0
    1.2520    1.1600    0.7100 H   0  0  0  0  0  0  0  0  0  0  0  0
    3.1680    2.0230   -0.5830 H   0  0  0  0  0  0  0  0  0  0  0  0
    2.3480   -0.7890   -3.7050 H   0  0  0  0  0  0  0  0  0  0  0  0
    3.7180    1.0540   -2.7890 H   0  0  0  0  0  0  0  0  0  0  0  0
  1  2  1  0  0  0  0
  1  4  1  0  0  0  0
  1  8  1  0  0  0  0
  2  3  1  0  0  0  0
  2 13  1  0  0  0  0
  2 23  1  0  0  0  0
  3 10  1  0  0  0  0
  4 10  1  0  0  0  0
  4 14  2  0  0  0  0
  5  6  1  0  0  0  0
  5  7  2  0  0  0  0
  5 15  1  0  0  0  0
  6 12  2  0  0  0  0
  6 17  1  0  0  0  0
  7 11  1  0  0  0  0
  7 16  1  0  0  0  0
  8  9  1  0  0  0  0
  8 24  1  0  0  0  0
  8 25  1  0  0  0  0
  9 11  2  0  0  0  0
  9 12  1  0  0  0  0
 10 26  1  0  0  0  0
 10 27  1  0  0  0  0
 11 28  1  0  0  0  0
 12 29  1  0  0  0  0
 13 18  1  0  0  0  0
 13 19  2  0  0  0  0
 18 21  2  0  0  0  0
 18 30  1  0  0  0  0
 19 20  1  0  0  0  0
 19 31  1  0  0  0  0
 20 22  2  0  0  0  0
 20 32  1  0  0  0  0
 21 22  1  0  0  0  0
 21 33  1  0  0  0  0
 22 34  1  0  0  0  0
M  END
>  <$CLUSTER>
702

>  <INDEX>
458380

$$$$
Tripos 1539-27159
  MOE2020           3D

 34 36  0  0  1  0  0  0  0  0999 V2000
    1.1230   -0.3000    0.2240 N   0  0  0  0  0  0  0  0  0  0  0  0
   -0.2480   -0.7130    0.4870 C   0  0  3  0  0  0  0  0  0  0  0  0
   -1.1920   -0.0080   -0.4170 C   0  0  0  0  0  0  0  0  0  0  0  0
   -0.5740   -0.2920    2.2140 S   0  0  0  0  0  0  0  0  0  0  0  0
    1.8190   -0.7650   -0.9740 C   0  0  0  0  0  0  0  0  0  0  0  0
    1.7370    0.5260    1.1630 C   0  0  0  0  0  0  0  0  0  0  0  0
   -2.1260   -0.7920   -1.0330 O   0  0  0  0  0  0  0  0  0  0  0  0
    2.4440   -2.1340   -0.7630 C   0  0  0  0  0  0  0  0  0  0  0  0
   -1.3560    1.3080   -0.8060 C   0  0  0  0  0  0  0  0  0  0  0  0
    3.7080   -2.4090   -1.3010 C   0  0  0  0  0  0  0  0  0  0  0  0
   -2.8820    0.0280   -1.8090 C   0  0  0  0  0  0  0  0  0  0  0  0
    0.8310    0.8290    2.3310 C   0  0  0  0  0  0  0  0  0  0  0  0
   -2.4490    1.3280   -1.7040 C   0  0  0  0  0  0  0  0  0  0  0  0
    2.8730    0.9860    1.0850 O   0  0  0  0  0  0  0  0  0  0  0  0
    4.2940   -3.6660   -1.1770 C   0  0  0  0  0  0  0  0  0  0  0  0
    4.3830   -1.4530   -1.9560 F   0  0  0  0  0  0  0  0  0  0  0  0
    5.4970   -3.9770   -1.6570 F   0  0  0  0  0  0  0  0  0  0  0  0
    1.7600   -3.1750   -0.1220 C   0  0  0  0  0  0  0  0  0  0  0  0
    2.3410   -4.4400    0.0090 C   0  0  0  0  0  0  0  0  0  0  0  0
   -3.9480   -0.4810   -2.5830 C   0  0  0  0  0  0  0  0  0  0  0  0
    3.6100   -4.6850   -0.5160 C   0  0  0  0  0  0  0  0  0  0  0  0
   -0.3830   -1.7800    0.3080 H   0  0  0  0  0  0  0  0  0  0  0  0
    2.6050   -0.0530   -1.2250 H   0  0  0  0  0  0  0  0  0  0  0  0
    1.1060   -0.8250   -1.7960 H   0  0  0  0  0  0  0  0  0  0  0  0
   -0.7660    2.1540   -0.4870 H   0  0  0  0  0  0  0  0  0  0  0  0
    1.3620    0.6660    3.2690 H   0  0  0  0  0  0  0  0  0  0  0  0
    0.4900    1.8630    2.2810 H   0  0  0  0  0  0  0  0  0  0  0  0
   -2.8600    2.1910   -2.2060 H   0  0  0  0  0  0  0  0  0  0  0  0
    0.7720   -2.9980    0.2760 H   0  0  0  0  0  0  0  0  0  0  0  0
    1.8060   -5.2290    0.5170 H   0  0  0  0  0  0  0  0  0  0  0  0
   -4.0210   -1.5590   -2.4360 H   0  0  0  0  0  0  0  0  0  0  0  0
   -3.7660   -0.2690   -3.6370 H   0  0  0  0  0  0  0  0  0  0  0  0
   -4.8800   -0.0080   -2.2730 H   0  0  0  0  0  0  0  0  0  0  0  0
    4.0610   -5.6610   -0.4110 H   0  0  0  0  0  0  0  0  0  0  0  0
  1  2  1  0  0  0  0
  1  5  1  0  0  0  0
  1  6  1  0  0  0  0
  2  3  1  0  0  0  0
  2  4  1  0  0  0  0
  2 22  1  0  0  0  0
  3  7  1  0  0  0  0
  3  9  2  0  0  0  0
  4 12  1  0  0  0  0
  5  8  1  0  0  0  0
  5 23  1  0  0  0  0
  5 24  1  0  0  0  0
  6 12  1  0  0  0  0
  6 14  2  0  0  0  0
  7 11  1  0  0  0  0
  8 10  2  0  0  0  0
  8 18  1  0  0  0  0
  9 13  1  0  0  0  0
  9 25  1  0  0  0  0
 10 15  1  0  0  0  0
 10 16  1  0  0  0  0
 11 13  2  0  0  0  0
 11 20  1  0  0  0  0
 12 26  1  0  0  0  0
 12 27  1  0  0  0  0
 13 28  1  0  0  0  0
 15 17  1  0  0  0  0
 15 21  2  0  0  0  0
 18 19  2  0  0  0  0
 18 29  1  0  0  0  0
 19 21  1  0  0  0  0
 19 30  1  0  0  0  0
 20 31  1  0  0  0  0
 20 32  1  0  0  0  0
 20 33  1  0  0  0  0
 21 34  1  0  0  0  0
M  END
>  <$CLUSTER>
703

>  <INDEX>
458550

$$$$
Tripos 1539-36168
  MOE2020           3D

 41 43  0  0  1  0  0  0  0  0999 V2000
   -1.2870    0.1300    0.6930 N   0  0  0  0  0  0  0  0  0  0  0  0
   -0.5020   -0.8780    0.0040 C   0  0  3  0  0  0  0  0  0  0  0  0
    0.0500   -2.0540    1.2740 S   0  0  0  0  0  0  0  0  0  0  0  0
   -1.2380    0.1480    2.0740 C   0  0  0  0  0  0  0  0  0  0  0  0
    0.6820   -0.3120   -0.7620 C   0  0  0  0  0  0  0  0  0  0  0  0
   -2.1090    1.0660   -0.0690 C   0  0  0  0  0  0  0  0  0  0  0  0
   -0.3470   -0.9400    2.6380 C   0  0  0  0  0  0  0  0  0  0  0  0
   -5.8440    0.2540    0.0330 C   0  0  0  0  0  0  0  0  0  0  0  0
   -5.9710   -0.6140   -1.0520 C   0  0  0  0  0  0  0  0  0  0  0  0
   -3.4680    0.4770   -0.4130 C   0  0  0  0  0  0  0  0  0  0  0  0
   -4.5960    0.7950    0.3540 C   0  0  0  0  0  0  0  0  0  0  0  0
    1.0190   -0.8550   -2.0160 C   0  0  0  0  0  0  0  0  0  0  0  0
   -1.8330    0.9550    2.7830 O   0  0  0  0  0  0  0  0  0  0  0  0
   -4.8510   -0.9480   -1.8120 C   0  0  0  0  0  0  0  0  0  0  0  0
   -6.8620    0.6200    0.8140 F   0  0  0  0  0  0  0  0  0  0  0  0
   -3.6020   -0.4090   -1.4920 C   0  0  0  0  0  0  0  0  0  0  0  0
    2.1060   -0.3640   -2.7420 C   0  0  0  0  0  0  0  0  0  0  0  0
   -7.1250   -1.1680   -1.4270 F   0  0  0  0  0  0  0  0  0  0  0  0
    1.4820    0.7320   -0.2550 C   0  0  0  0  0  0  0  0  0  0  0  0
    2.5090   -0.8240   -3.9770 O   0  0  0  0  0  0  0  0  0  0  0  0
    2.5680    1.2200   -0.9840 C   0  0  0  0  0  0  0  0  0  0  0  0
    2.8790    0.6740   -2.2260 C   0  0  0  0  0  0  0  0  0  0  0  0
    1.7540   -1.8860   -4.5600 C   0  0  0  0  0  0  0  0  0  0  0  0
    2.3790   -2.2220   -5.9020 C   0  0  0  0  0  0  0  0  0  0  0  0
   -1.1190   -1.3550   -0.7580 H   0  0  0  0  0  0  0  0  0  0  0  0
   -1.5900    1.3190   -0.9940 H   0  0  0  0  0  0  0  0  0  0  0  0
   -2.2560    1.9690    0.5230 H   0  0  0  0  0  0  0  0  0  0  0  0
    0.5660   -0.5040    3.0430 H   0  0  0  0  0  0  0  0  0  0  0  0
   -0.8710   -1.4830    3.4250 H   0  0  0  0  0  0  0  0  0  0  0  0
   -4.5010    1.4620    1.1980 H   0  0  0  0  0  0  0  0  0  0  0  0
    0.4290   -1.6630   -2.4220 H   0  0  0  0  0  0  0  0  0  0  0  0
   -4.9490   -1.6240   -2.6490 H   0  0  0  0  0  0  0  0  0  0  0  0
   -2.7350   -0.6760   -2.0790 H   0  0  0  0  0  0  0  0  0  0  0  0
    1.2520    1.1600    0.7100 H   0  0  0  0  0  0  0  0  0  0  0  0
    3.1680    2.0230   -0.5830 H   0  0  0  0  0  0  0  0  0  0  0  0
    3.7180    1.0540   -2.7890 H   0  0  0  0  0  0  0  0  0  0  0  0
    0.7200   -1.5710   -4.7020 H   0  0  0  0  0  0  0  0  0  0  0  0
    1.7820   -2.7600   -3.9100 H   0  0  0  0  0  0  0  0  0  0  0  0
    2.3480   -1.3440   -6.5470 H   0  0  0  0  0  0  0  0  0  0  0  0
    1.8230   -3.0350   -6.3680 H   0  0  0  0  0  0  0  0  0  0  0  0
    3.4150   -2.5280   -5.7540 H   0  0  0  0  0  0  0  0  0  0  0  0
  1  2  1  0  0  0  0
  1  4  1  0  0  0  0
  1  6  1  0  0  0  0
  2  3  1  0  0  0  0
  2  5  1  0  0  0  0
  2 25  1  0  0  0  0
  3  7  1  0  0  0  0
  4  7  1  0  0  0  0
  4 13  2  0  0  0  0
  5 12  2  0  0  0  0
  5 19  1  0  0  0  0
  6 10  1  0  0  0  0
  6 26  1  0  0  0  0
  6 27  1  0  0  0  0
  7 28  1  0  0  0  0
  7 29  1  0  0  0  0
  8  9  1  0  0  0  0
  8 11  2  0  0  0  0
  8 15  1  0  0  0  0
  9 14  2  0  0  0  0
  9 18  1  0  0  0  0
 10 11  1  0  0  0  0
 10 16  2  0  0  0  0
 11 30  1  0  0  0  0
 12 17  1  0  0  0  0
 12 31  1  0  0  0  0
 14 16  1  0  0  0  0
 14 32  1  0  0  0  0
 16 33  1  0  0  0  0
 17 20  1  0  0  0  0
 17 22  2  0  0  0  0
 19 21  2  0  0  0  0
 19 34  1  0  0  0  0
 20 23  1  0  0  0  0
 21 22  1  0  0  0  0
 21 35  1  0  0  0  0
 22 36  1  0  0  0  0
 23 24  1  0  0  0  0
 23 37  1  0  0  0  0
 23 38  1  0  0  0  0
 24 39  1  0  0  0  0
 24 40  1  0  0  0  0
 24 41  1  0  0  0  0
M  END
>  <$CLUSTER>
704

>  <INDEX>
460591

$$$$
Tripos 1527-00219
  MOE2020           3D

 41 42  0  0  1  0  0  0  0  0999 V2000
   -2.3650    0.6820    0.5080 C   0  0  0  0  0  0  0  0  0  0  0  0
    0.0790    0.2680    0.0010 C   0  0  0  0  0  0  0  0  0  0  0  0
   -1.0630    0.3220    0.8430 N   0  0  0  0  0  0  0  0  0  0  0  0
    0.0280    0.5930   -1.3620 C   0  0  0  0  0  0  0  0  0  0  0  0
    1.3160   -0.1300    0.5620 C   0  0  0  0  0  0  0  0  0  0  0  0
    2.4590   -0.1900   -0.2550 C   0  0  0  0  0  0  0  0  0  0  0  0
    1.1750    0.5280   -2.1580 C   0  0  0  0  0  0  0  0  0  0  0  0
    2.3890    0.1370   -1.6070 C   0  0  0  0  0  0  0  0  0  0  0  0
   -3.2020    0.6080    1.6120 N   0  0  0  0  0  0  0  0  0  0  0  0
   -2.7890    1.0290   -0.5910 O   0  0  0  0  0  0  0  0  0  0  0  0
   -4.2030    3.1700    0.7780 O   0  0  0  0  0  0  0  0  0  0  0  0
   -4.6210    0.9170    1.5990 C   0  0  0  0  0  0  0  0  0  0  0  0
   -4.8670    2.4010    1.7980 C   0  0  3  0  0  0  0  0  0  0  0  0
    1.4590   -0.4970    2.0160 C   0  0  0  0  0  0  0  0  0  0  0  0
    1.0940    0.8810   -3.6100 C   0  0  0  0  0  0  0  0  0  0  0  0
    3.6120    0.0690   -2.4600 C   0  0  0  0  0  0  0  0  0  0  0  0
   -5.1120    4.2070    0.3630 C   0  0  0  0  0  0  0  0  0  0  0  0
   -6.3580    2.7460    1.7510 C   0  0  0  0  0  0  0  0  0  0  0  0
   -6.2750    4.2120    1.3320 C   0  0  0  0  0  0  0  0  0  0  0  0
   -0.9110    0.0670    1.8080 H   0  0  0  0  0  0  0  0  0  0  0  0
   -0.9100    0.8980   -1.8030 H   0  0  0  0  0  0  0  0  0  0  0  0
    3.4040   -0.4940    0.1720 H   0  0  0  0  0  0  0  0  0  0  0  0
   -2.7940    0.3180    2.4890 H   0  0  0  0  0  0  0  0  0  0  0  0
   -5.1110    0.3660    2.4010 H   0  0  0  0  0  0  0  0  0  0  0  0
   -5.0410    0.6130    0.6400 H   0  0  0  0  0  0  0  0  0  0  0  0
   -4.4700    2.6480    2.7830 H   0  0  0  0  0  0  0  0  0  0  0  0
    0.4930   -0.4010    2.5120 H   0  0  0  0  0  0  0  0  0  0  0  0
    2.1780    0.1710    2.4900 H   0  0  0  0  0  0  0  0  0  0  0  0
    1.8090   -1.5260    2.0980 H   0  0  0  0  0  0  0  0  0  0  0  0
    0.0700    1.1610   -3.8590 H   0  0  0  0  0  0  0  0  0  0  0  0
    1.3920    0.0210   -4.2100 H   0  0  0  0  0  0  0  0  0  0  0  0
    1.7610    1.7180   -3.8180 H   0  0  0  0  0  0  0  0  0  0  0  0
    4.4590   -0.2550   -1.8550 H   0  0  0  0  0  0  0  0  0  0  0  0
    3.8190    1.0540   -2.8770 H   0  0  0  0  0  0  0  0  0  0  0  0
    3.4510   -0.6420   -3.2700 H   0  0  0  0  0  0  0  0  0  0  0  0
   -5.4700    4.0050   -0.6460 H   0  0  0  0  0  0  0  0  0  0  0  0
   -4.6080    5.1730    0.3830 H   0  0  0  0  0  0  0  0  0  0  0  0
   -6.8320    2.6300    2.7260 H   0  0  0  0  0  0  0  0  0  0  0  0
   -6.8900    2.1440    1.0140 H   0  0  0  0  0  0  0  0  0  0  0  0
   -7.1940    4.5350    0.8430 H   0  0  0  0  0  0  0  0  0  0  0  0
   -6.0730    4.8560    2.1880 H   0  0  0  0  0  0  0  0  0  0  0  0
  1  3  1  0  0  0  0
  1  9  1  0  0  0  0
  1 10  2  0  0  0  0
  2  3  1  0  0  0  0
  2  4  1  0  0  0  0
  2  5  2  0  0  0  0
  3 20  1  0  0  0  0
  4  7  2  0  0  0  0
  4 21  1  0  0  0  0
  5  6  1  0  0  0  0
  5 14  1  0  0  0  0
  6  8  2  0  0  0  0
  6 22  1  0  0  0  0
  7  8  1  0  0  0  0
  7 15  1  0  0  0  0
  8 16  1  0  0  0  0
  9 12  1  0  0  0  0
  9 23  1  0  0  0  0
 11 13  1  0  0  0  0
 11 17  1  0  0  0  0
 12 13  1  0  0  0  0
 12 24  1  0  0  0  0
 12 25  1  0  0  0  0
 13 18  1  0  0  0  0
 13 26  1  0  0  0  0
 14 27  1  0  0  0  0
 14 28  1  0  0  0  0
 14 29  1  0  0  0  0
 15 30  1  0  0  0  0
 15 31  1  0  0  0  0
 15 32  1  0  0  0  0
 16 33  1  0  0  0  0
 16 34  1  0  0  0  0
 16 35  1  0  0  0  0
 17 19  1  0  0  0  0
 17 36  1  0  0  0  0
 17 37  1  0  0  0  0
 18 19  1  0  0  0  0
 18 38  1  0  0  0  0
 18 39  1  0  0  0  0
 19 40  1  0  0  0  0
 19 41  1  0  0  0  0
M  END
>  <$CLUSTER>
705

>  <INDEX>
449536

$$$$
Tripos 1527-02989
  MOE2020           3D

 34 35  0  0  0  0  0  0  0  0999 V2000
   -2.3160    0.0880   -0.5130 C   0  0  0  0  0  0  0  0  0  0  0  0
    2.6180   -0.0790   -0.3030 C   0  0  0  0  0  0  0  0  0  0  0  0
    1.3950    0.2080   -0.9120 C   0  0  0  0  0  0  0  0  0  0  0  0
   -1.0050    0.2590   -0.9460 N   0  0  0  0  0  0  0  0  0  0  0  0
    0.1850   -0.0640   -0.2540 C   0  0  0  0  0  0  0  0  0  0  0  0
    2.6480   -0.6400    0.9700 C   0  0  0  0  0  0  0  0  0  0  0  0
   -2.6940   -0.3780    0.5580 O   0  0  0  0  0  0  0  0  0  0  0  0
   -3.2200    0.5230   -1.4700 N   0  0  0  0  0  0  0  0  0  0  0  0
    1.4530   -0.9140    1.6320 C   0  0  0  0  0  0  0  0  0  0  0  0
    4.0650    0.2640   -1.1330 Cl  0  0  0  0  0  0  0  0  0  0  0  0
    0.2250   -0.6280    1.0250 C   0  0  0  0  0  0  0  0  0  0  0  0
    3.7690   -0.9440    1.6230 F   0  0  0  0  0  0  0  0  0  0  0  0
   -4.6650    0.4830   -1.3250 C   0  0  0  0  0  0  0  0  0  0  0  0
   -6.7380   -0.9170   -1.6010 C   0  0  0  0  0  0  0  0  0  0  0  0
   -5.2260   -0.8650   -1.7370 C   0  0  0  0  0  0  0  0  0  0  0  0
   -7.5570   -0.5290   -2.6670 C   0  0  0  0  0  0  0  0  0  0  0  0
   -7.3260   -1.3190   -0.3980 C   0  0  0  0  0  0  0  0  0  0  0  0
   -8.7150   -1.3480   -0.2670 C   0  0  0  0  0  0  0  0  0  0  0  0
   -8.9460   -0.5580   -2.5340 C   0  0  0  0  0  0  0  0  0  0  0  0
   -9.5230   -0.9690   -1.3350 C   0  0  0  0  0  0  0  0  0  0  0  0
    1.3800    0.6440   -1.9000 H   0  0  0  0  0  0  0  0  0  0  0  0
   -0.8890    0.6620   -1.8650 H   0  0  0  0  0  0  0  0  0  0  0  0
   -2.8460    0.8950   -2.3310 H   0  0  0  0  0  0  0  0  0  0  0  0
    1.4750   -1.3500    2.6200 H   0  0  0  0  0  0  0  0  0  0  0  0
   -0.6960   -0.8440    1.5470 H   0  0  0  0  0  0  0  0  0  0  0  0
   -5.1060    1.2570   -1.9530 H   0  0  0  0  0  0  0  0  0  0  0  0
   -4.9220    0.6700   -0.2820 H   0  0  0  0  0  0  0  0  0  0  0  0
   -4.7890   -1.6370   -1.1030 H   0  0  0  0  0  0  0  0  0  0  0  0
   -4.9590   -1.0540   -2.7770 H   0  0  0  0  0  0  0  0  0  0  0  0
   -7.1120   -0.2060   -3.5970 H   0  0  0  0  0  0  0  0  0  0  0  0
   -6.7020   -1.6090    0.4340 H   0  0  0  0  0  0  0  0  0  0  0  0
   -9.1630   -1.6650    0.6630 H   0  0  0  0  0  0  0  0  0  0  0  0
   -9.5740   -0.2620   -3.3610 H   0  0  0  0  0  0  0  0  0  0  0  0
  -10.5980   -0.9940   -1.2340 H   0  0  0  0  0  0  0  0  0  0  0  0
  1  4  1  0  0  0  0
  1  7  2  0  0  0  0
  1  8  1  0  0  0  0
  2  3  2  0  0  0  0
  2  6  1  0  0  0  0
  2 10  1  0  0  0  0
  3  5  1  0  0  0  0
  3 21  1  0  0  0  0
  4  5  1  0  0  0  0
  4 22  1  0  0  0  0
  5 11  2  0  0  0  0
  6  9  2  0  0  0  0
  6 12  1  0  0  0  0
  8 13  1  0  0  0  0
  8 23  1  0  0  0  0
  9 11  1  0  0  0  0
  9 24  1  0  0  0  0
 11 25  1  0  0  0  0
 13 15  1  0  0  0  0
 13 26  1  0  0  0  0
 13 27  1  0  0  0  0
 14 15  1  0  0  0  0
 14 16  1  0  0  0  0
 14 17  2  0  0  0  0
 15 28  1  0  0  0  0
 15 29  1  0  0  0  0
 16 19  2  0  0  0  0
 16 30  1  0  0  0  0
 17 18  1  0  0  0  0
 17 31  1  0  0  0  0
 18 20  2  0  0  0  0
 18 32  1  0  0  0  0
 19 20  1  0  0  0  0
 19 33  1  0  0  0  0
 20 34  1  0  0  0  0
M  END
>  <$CLUSTER>
706

>  <INDEX>
449729

$$$$
Tripos 1540-01960
  MOE2020           3D

 44 44  0  0  0  0  0  0  0  0999 V2000
   -2.3160    0.0880   -0.5130 C   0  0  0  0  0  0  0  0  0  0  0  0
   -1.0050    0.2590   -0.9460 N   0  0  0  0  0  0  0  0  0  0  0  0
    0.1850   -0.0640   -0.2540 C   0  0  0  0  0  0  0  0  0  0  0  0
   -3.2200    0.5230   -1.4700 N   0  0  0  0  0  0  0  0  0  0  0  0
   -2.6940   -0.3780    0.5580 O   0  0  0  0  0  0  0  0  0  0  0  0
    2.6180   -0.0790   -0.3030 C   0  0  0  0  0  0  0  0  0  0  0  0
    1.4530   -0.9140    1.6320 C   0  0  0  0  0  0  0  0  0  0  0  0
    1.3950    0.2080   -0.9120 C   0  0  0  0  0  0  0  0  0  0  0  0
    0.2250   -0.6280    1.0250 C   0  0  0  0  0  0  0  0  0  0  0  0
   -5.2260   -0.8650   -1.7370 C   0  0  0  0  0  0  0  0  0  0  0  0
    2.6480   -0.6400    0.9700 C   0  0  0  0  0  0  0  0  0  0  0  0
   -4.6650    0.4830   -1.3250 C   0  0  0  0  0  0  0  0  0  0  0  0
   -5.1960   -1.1020   -3.1470 O   0  0  0  0  0  0  0  0  0  0  0  0
   -4.5780   -1.9570   -1.0880 O   0  0  0  0  0  0  0  0  0  0  0  0
    1.4770   -1.5180    3.0010 C   0  0  0  0  0  0  0  0  0  0  0  0
    3.8960    0.2160   -1.0190 C   0  0  0  0  0  0  0  0  0  0  0  0
   -5.9280   -2.1640   -3.6190 C   0  0  0  0  0  0  0  0  0  0  0  0
   -5.1970   -3.1940   -1.1740 C   0  0  0  0  0  0  0  0  0  0  0  0
   -5.8080   -2.2950   -5.1000 C   0  0  0  0  0  0  0  0  0  0  0  0
   -4.4160   -4.2390   -0.4540 C   0  0  0  0  0  0  0  0  0  0  0  0
   -0.8890    0.6620   -1.8650 H   0  0  0  0  0  0  0  0  0  0  0  0
   -2.8460    0.8950   -2.3310 H   0  0  0  0  0  0  0  0  0  0  0  0
    1.3800    0.6440   -1.9000 H   0  0  0  0  0  0  0  0  0  0  0  0
   -0.6960   -0.8440    1.5470 H   0  0  0  0  0  0  0  0  0  0  0  0
   -6.2670   -0.8120   -1.4180 H   0  0  0  0  0  0  0  0  0  0  0  0
    3.5930   -0.8620    1.4430 H   0  0  0  0  0  0  0  0  0  0  0  0
   -5.1060    1.2570   -1.9530 H   0  0  0  0  0  0  0  0  0  0  0  0
   -4.9220    0.6700   -0.2820 H   0  0  0  0  0  0  0  0  0  0  0  0
    0.4550   -1.6580    3.3540 H   0  0  0  0  0  0  0  0  0  0  0  0
    2.0090   -0.8540    3.6820 H   0  0  0  0  0  0  0  0  0  0  0  0
    1.9840   -2.4820    2.9640 H   0  0  0  0  0  0  0  0  0  0  0  0
    3.6740    0.6490   -1.9940 H   0  0  0  0  0  0  0  0  0  0  0  0
    4.4600   -0.7070   -1.1510 H   0  0  0  0  0  0  0  0  0  0  0  0
    4.4860    0.9220   -0.4340 H   0  0  0  0  0  0  0  0  0  0  0  0
   -6.9760   -2.0150   -3.3600 H   0  0  0  0  0  0  0  0  0  0  0  0
   -5.5650   -3.0800   -3.1520 H   0  0  0  0  0  0  0  0  0  0  0  0
   -5.2850   -3.4760   -2.2230 H   0  0  0  0  0  0  0  0  0  0  0  0
   -6.1910   -3.1260   -0.7320 H   0  0  0  0  0  0  0  0  0  0  0  0
   -6.1690   -1.3830   -5.5760 H   0  0  0  0  0  0  0  0  0  0  0  0
   -6.4040   -3.1420   -5.4390 H   0  0  0  0  0  0  0  0  0  0  0  0
   -4.7640   -2.4560   -5.3670 H   0  0  0  0  0  0  0  0  0  0  0  0
   -3.4200   -4.3130   -0.8900 H   0  0  0  0  0  0  0  0  0  0  0  0
   -4.9250   -5.1990   -0.5440 H   0  0  0  0  0  0  0  0  0  0  0  0
   -4.3320   -3.9690    0.5990 H   0  0  0  0  0  0  0  0  0  0  0  0
  1  2  1  0  0  0  0
  1  4  1  0  0  0  0
  1  5  2  0  0  0  0
  2  3  1  0  0  0  0
  2 21  1  0  0  0  0
  3  8  2  0  0  0  0
  3  9  1  0  0  0  0
  4 12  1  0  0  0  0
  4 22  1  0  0  0  0
  6  8  1  0  0  0  0
  6 11  2  0  0  0  0
  6 16  1  0  0  0  0
  7  9  2  0  0  0  0
  7 11  1  0  0  0  0
  7 15  1  0  0  0  0
  8 23  1  0  0  0  0
  9 24  1  0  0  0  0
 10 12  1  0  0  0  0
 10 13  1  0  0  0  0
 10 14  1  0  0  0  0
 10 25  1  0  0  0  0
 11 26  1  0  0  0  0
 12 27  1  0  0  0  0
 12 28  1  0  0  0  0
 13 17  1  0  0  0  0
 14 18  1  0  0  0  0
 15 29  1  0  0  0  0
 15 30  1  0  0  0  0
 15 31  1  0  0  0  0
 16 32  1  0  0  0  0
 16 33  1  0  0  0  0
 16 34  1  0  0  0  0
 17 19  1  0  0  0  0
 17 35  1  0  0  0  0
 17 36  1  0  0  0  0
 18 20  1  0  0  0  0
 18 37  1  0  0  0  0
 18 38  1  0  0  0  0
 19 39  1  0  0  0  0
 19 40  1  0  0  0  0
 19 41  1  0  0  0  0
 20 42  1  0  0  0  0
 20 43  1  0  0  0  0
 20 44  1  0  0  0  0
M  END
>  <$CLUSTER>
707

>  <INDEX>
461430

$$$$
Asinex ASN 06583389
  MOE2020           3D

 46 48  0  0  0  0  0  0  0  0999 V2000
    1.5170    2.5300    0.9830 C   0  0  0  0  0  0  0  0  0  0  0  0
    0.5450    1.6560    0.6010 N   0  0  0  0  0  0  0  0  0  0  0  0
    1.6740    2.6870    2.3440 N   0  0  0  0  0  0  0  0  0  0  0  0
   -0.2060   -2.3770   -0.7550 C   0  0  0  0  0  0  0  0  0  0  0  0
    2.5230    3.4590    3.1420 C   0  0  0  0  0  0  0  0  0  0  0  0
   -0.9440   -2.8840   -1.9650 C   0  0  0  0  0  0  0  0  0  0  0  0
    2.2190    3.1700    0.1970 O   0  0  0  0  0  0  0  0  0  0  0  0
    0.1630    1.4860   -0.8050 C   0  0  0  0  0  0  0  0  0  0  0  0
   -0.2610    0.7980    1.4750 C   0  0  0  0  0  0  0  0  0  0  0  0
   -0.4620   -0.9230   -0.3640 C   0  0  0  0  0  0  0  0  0  0  0  0
    0.5960   -3.0830   -0.1530 O   0  0  0  0  0  0  0  0  0  0  0  0
    2.4420    3.3950    4.5530 C   0  0  0  0  0  0  0  0  0  0  0  0
   -0.1100   -0.6770    1.1070 C   0  0  0  0  0  0  0  0  0  0  0  0
    0.3310    0.0370   -1.2590 C   0  0  0  0  0  0  0  0  0  0  0  0
   -0.7000   -4.2240   -2.3390 C   0  0  0  0  0  0  0  0  0  0  0  0
   -1.8390   -2.1200   -2.6780 C   0  0  0  0  0  0  0  0  0  0  0  0
   -2.2680   -3.9820   -4.1630 C   0  0  0  0  0  0  0  0  0  0  0  0
   -1.3670   -4.7620   -3.4420 C   0  0  0  0  0  0  0  0  0  0  0  0
   -2.5030   -2.6630   -3.7810 C   0  0  0  0  0  0  0  0  0  0  0  0
   -3.0720   -4.6520   -5.5050 Cl  0  0  0  0  0  0  0  0  0  0  0  0
    3.4700    4.3130    2.5580 C   0  0  0  0  0  0  0  0  0  0  0  0
    1.4550    2.5060    5.2620 C   0  0  0  0  0  0  0  0  0  0  0  0
    3.3070    4.1830    5.3330 C   0  0  0  0  0  0  0  0  0  0  0  0
    4.3220    5.0890    3.3490 C   0  0  0  0  0  0  0  0  0  0  0  0
    4.2410    5.0250    4.7350 C   0  0  0  0  0  0  0  0  0  0  0  0
    1.0350    2.1190    2.8820 H   0  0  0  0  0  0  0  0  0  0  0  0
    0.7930    2.1260   -1.4230 H   0  0  0  0  0  0  0  0  0  0  0  0
   -0.8810    1.7770   -0.9260 H   0  0  0  0  0  0  0  0  0  0  0  0
   -1.3090    1.0810    1.3800 H   0  0  0  0  0  0  0  0  0  0  0  0
    0.0620    0.9400    2.5060 H   0  0  0  0  0  0  0  0  0  0  0  0
   -1.5260   -0.7310   -0.5040 H   0  0  0  0  0  0  0  0  0  0  0  0
   -0.7750   -1.2700    1.7350 H   0  0  0  0  0  0  0  0  0  0  0  0
    0.9220   -0.9820    1.2810 H   0  0  0  0  0  0  0  0  0  0  0  0
    1.3870   -0.2280   -1.2160 H   0  0  0  0  0  0  0  0  0  0  0  0
   -0.0260   -0.0570   -2.2850 H   0  0  0  0  0  0  0  0  0  0  0  0
   -0.0030   -4.8280   -1.7770 H   0  0  0  0  0  0  0  0  0  0  0  0
   -2.0290   -1.0980   -2.3840 H   0  0  0  0  0  0  0  0  0  0  0  0
   -1.1840   -5.7850   -3.7360 H   0  0  0  0  0  0  0  0  0  0  0  0
   -3.2010   -2.0580   -4.3400 H   0  0  0  0  0  0  0  0  0  0  0  0
    3.5420    4.3720    1.4820 H   0  0  0  0  0  0  0  0  0  0  0  0
    0.8610    1.9640    4.5260 H   0  0  0  0  0  0  0  0  0  0  0  0
    0.7970    3.1150    5.8820 H   0  0  0  0  0  0  0  0  0  0  0  0
    1.9920    1.7960    5.8910 H   0  0  0  0  0  0  0  0  0  0  0  0
    3.2460    4.1340    6.4100 H   0  0  0  0  0  0  0  0  0  0  0  0
    5.0460    5.7400    2.8820 H   0  0  0  0  0  0  0  0  0  0  0  0
    4.8990    5.6250    5.3450 H   0  0  0  0  0  0  0  0  0  0  0  0
  1  2  1  0  0  0  0
  1  3  1  0  0  0  0
  1  7  2  0  0  0  0
  2  8  1  0  0  0  0
  2  9  1  0  0  0  0
  3  5  1  0  0  0  0
  3 26  1  0  0  0  0
  4  6  1  0  0  0  0
  4 10  1  0  0  0  0
  4 11  2  0  0  0  0
  5 12  2  0  0  0  0
  5 21  1  0  0  0  0
  6 15  2  0  0  0  0
  6 16  1  0  0  0  0
  8 14  1  0  0  0  0
  8 27  1  0  0  0  0
  8 28  1  0  0  0  0
  9 13  1  0  0  0  0
  9 29  1  0  0  0  0
  9 30  1  0  0  0  0
 10 13  1  0  0  0  0
 10 14  1  0  0  0  0
 10 31  1  0  0  0  0
 12 22  1  0  0  0  0
 12 23  1  0  0  0  0
 13 32  1  0  0  0  0
 13 33  1  0  0  0  0
 14 34  1  0  0  0  0
 14 35  1  0  0  0  0
 15 18  1  0  0  0  0
 15 36  1  0  0  0  0
 16 19  2  0  0  0  0
 16 37  1  0  0  0  0
 17 18  2  0  0  0  0
 17 19  1  0  0  0  0
 17 20  1  0  0  0  0
 18 38  1  0  0  0  0
 19 39  1  0  0  0  0
 21 24  2  0  0  0  0
 21 40  1  0  0  0  0
 22 41  1  0  0  0  0
 22 42  1  0  0  0  0
 22 43  1  0  0  0  0
 23 25  2  0  0  0  0
 23 44  1  0  0  0  0
 24 25  1  0  0  0  0
 24 45  1  0  0  0  0
 25 46  1  0  0  0  0
M  END
>  <$CLUSTER>
708

>  <INDEX>
162518

$$$$
Tripos 1527-27418
  MOE2020           3D

 42 43  0  0  0  0  0  0  0  0999 V2000
   -1.5300    0.1870   -2.3080 C   0  0  0  0  0  0  0  0  0  0  0  0
   -0.9820    0.2830   -1.0830 N   0  0  0  0  0  0  0  0  0  0  0  0
    0.9820   -0.2830    1.0830 N   0  0  0  0  0  0  0  0  0  0  0  0
    1.5360   -0.2090    2.2970 C   0  0  0  0  0  0  0  0  0  0  0  0
   -1.0680    1.0920   -3.2390 N   0  0  0  0  0  0  0  0  0  0  0  0
   -0.9660    2.6210   -6.6010 C   0  0  0  0  0  0  0  0  0  0  0  0
   -0.7000    2.3570   -5.2560 C   0  0  0  0  0  0  0  0  0  0  0  0
   -1.3670    1.3210   -4.5830 C   0  0  0  0  0  0  0  0  0  0  0  0
   -2.3800   -0.6510   -2.6200 O   0  0  0  0  0  0  0  0  0  0  0  0
   -0.0330    1.3000   -0.5920 C   0  0  0  0  0  0  0  0  0  0  0  0
   -1.2520   -0.6880   -0.0050 C   0  0  0  0  0  0  0  0  0  0  0  0
    0.0330   -1.3000    0.5920 C   0  0  0  0  0  0  0  0  0  0  0  0
    1.2520    0.6880    0.0050 C   0  0  0  0  0  0  0  0  0  0  0  0
    2.3250    0.6520    2.6740 O   0  0  0  0  0  0  0  0  0  0  0  0
   -1.9010    1.8550   -7.2900 C   0  0  0  0  0  0  0  0  0  0  0  0
   -2.5690    0.8240   -6.6320 C   0  0  0  0  0  0  0  0  0  0  0  0
    1.1470   -1.2090    3.1330 O   0  0  0  0  0  0  0  0  0  0  0  0
   -0.2810    3.6270   -7.1490 F   0  0  0  0  0  0  0  0  0  0  0  0
   -2.3050    0.5560   -5.2840 C   0  0  0  0  0  0  0  0  0  0  0  0
   -2.1900    2.1330   -8.7280 C   0  0  0  0  0  0  0  0  0  0  0  0
    1.6600   -1.2500    4.4510 C   0  0  0  0  0  0  0  0  0  0  0  0
    1.0790   -2.4460    5.1760 C   0  0  0  0  0  0  0  0  0  0  0  0
   -0.3670    1.7200   -2.8730 H   0  0  0  0  0  0  0  0  0  0  0  0
    0.0270    2.9560   -4.7280 H   0  0  0  0  0  0  0  0  0  0  0  0
   -0.5260    1.8920    0.1790 H   0  0  0  0  0  0  0  0  0  0  0  0
    0.2450    1.9470   -1.4240 H   0  0  0  0  0  0  0  0  0  0  0  0
   -1.8650   -1.4940   -0.4090 H   0  0  0  0  0  0  0  0  0  0  0  0
   -1.7970   -0.1810    0.7910 H   0  0  0  0  0  0  0  0  0  0  0  0
   -0.2450   -1.9470    1.4240 H   0  0  0  0  0  0  0  0  0  0  0  0
    0.5260   -1.8920   -0.1790 H   0  0  0  0  0  0  0  0  0  0  0  0
    1.7970    0.1810   -0.7910 H   0  0  0  0  0  0  0  0  0  0  0  0
    1.8650    1.4940    0.4090 H   0  0  0  0  0  0  0  0  0  0  0  0
   -3.2950    0.2280   -7.1660 H   0  0  0  0  0  0  0  0  0  0  0  0
   -2.8280   -0.2450   -4.7830 H   0  0  0  0  0  0  0  0  0  0  0  0
   -1.5770    2.9680   -9.0670 H   0  0  0  0  0  0  0  0  0  0  0  0
   -3.2440    2.3850   -8.8450 H   0  0  0  0  0  0  0  0  0  0  0  0
   -1.9600    1.2490   -9.3220 H   0  0  0  0  0  0  0  0  0  0  0  0
    1.3850   -0.3360    4.9780 H   0  0  0  0  0  0  0  0  0  0  0  0
    2.7460   -1.3370    4.4170 H   0  0  0  0  0  0  0  0  0  0  0  0
   -0.0070   -2.3580    5.2100 H   0  0  0  0  0  0  0  0  0  0  0  0
    1.4720   -2.4810    6.1920 H   0  0  0  0  0  0  0  0  0  0  0  0
    1.3530   -3.3590    4.6480 H   0  0  0  0  0  0  0  0  0  0  0  0
  1  2  1  0  0  0  0
  1  5  1  0  0  0  0
  1  9  2  0  0  0  0
  2 10  1  0  0  0  0
  2 11  1  0  0  0  0
  3  4  1  0  0  0  0
  3 12  1  0  0  0  0
  3 13  1  0  0  0  0
  4 14  2  0  0  0  0
  4 17  1  0  0  0  0
  5  8  1  0  0  0  0
  5 23  1  0  0  0  0
  6  7  2  0  0  0  0
  6 15  1  0  0  0  0
  6 18  1  0  0  0  0
  7  8  1  0  0  0  0
  7 24  1  0  0  0  0
  8 19  2  0  0  0  0
 10 13  1  0  0  0  0
 10 25  1  0  0  0  0
 10 26  1  0  0  0  0
 11 12  1  0  0  0  0
 11 27  1  0  0  0  0
 11 28  1  0  0  0  0
 12 29  1  0  0  0  0
 12 30  1  0  0  0  0
 13 31  1  0  0  0  0
 13 32  1  0  0  0  0
 15 16  2  0  0  0  0
 15 20  1  0  0  0  0
 16 19  1  0  0  0  0
 16 33  1  0  0  0  0
 17 21  1  0  0  0  0
 19 34  1  0  0  0  0
 20 35  1  0  0  0  0
 20 36  1  0  0  0  0
 20 37  1  0  0  0  0
 21 22  1  0  0  0  0
 21 38  1  0  0  0  0
 21 39  1  0  0  0  0
 22 40  1  0  0  0  0
 22 41  1  0  0  0  0
 22 42  1  0  0  0  0
M  END
>  <$CLUSTER>
709

>  <INDEX>
450504

$$$$
Tripos 1540-09746
  MOE2020           3D

 51 53  0  0  0  0  0  0  0  0999 V2000
   -1.5300    0.1870   -2.3080 C   0  0  0  0  0  0  0  0  0  0  0  0
   -0.9820    0.2830   -1.0830 N   0  0  0  0  0  0  0  0  0  0  0  0
    0.9820   -0.2830    1.0830 N   0  0  0  0  0  0  0  0  0  0  0  0
    1.4690   -0.3150    2.3450 C   0  0  0  0  0  0  0  0  0  0  0  0
   -1.0680    1.0920   -3.2390 N   0  0  0  0  0  0  0  0  0  0  0  0
   -0.7920    0.3930   -6.9290 C   0  0  0  0  0  0  0  0  0  0  0  0
   -0.6960    0.2630   -5.5000 C   0  0  0  0  0  0  0  0  0  0  0  0
   -0.1050   -0.4740   -7.7870 C   0  0  0  0  0  0  0  0  0  0  0  0
   -0.0330    1.3000   -0.5920 C   0  0  0  0  0  0  0  0  0  0  0  0
   -1.2520   -0.6880   -0.0050 C   0  0  0  0  0  0  0  0  0  0  0  0
    0.0330   -1.3000    0.5920 C   0  0  0  0  0  0  0  0  0  0  0  0
    1.2520    0.6880    0.0050 C   0  0  0  0  0  0  0  0  0  0  0  0
   -2.3800   -0.6510   -2.6200 O   0  0  0  0  0  0  0  0  0  0  0  0
   -1.4810    1.2040   -4.6060 C   0  0  0  0  0  0  0  0  0  0  0  0
    1.1460   -1.1800    3.1660 O   0  0  0  0  0  0  0  0  0  0  0  0
    2.4820    0.7640    2.7450 C   0  0  0  0  0  0  0  0  0  0  0  0
    0.0890   -0.7960   -5.0300 C   0  0  0  0  0  0  0  0  0  0  0  0
    0.6810   -1.4980   -7.2640 C   0  0  0  0  0  0  0  0  0  0  0  0
   -1.7670    1.6200   -7.6640 Cl  0  0  0  0  0  0  0  0  0  0  0  0
    0.7750   -1.6610   -5.8850 C   0  0  0  0  0  0  0  0  0  0  0  0
    1.5180   -2.5380   -8.3190 Cl  0  0  0  0  0  0  0  0  0  0  0  0
    2.5590    0.9010    4.2690 C   0  0  0  0  0  0  0  0  0  0  0  0
    3.8630    0.4160    2.1890 C   0  0  0  0  0  0  0  0  0  0  0  0
    4.9230    1.4390    2.6070 C   0  0  0  0  0  0  0  0  0  0  0  0
    3.6010    1.9220    4.7030 C   0  0  0  0  0  0  0  0  0  0  0  0
    4.9730    1.5910    4.1240 C   0  0  0  0  0  0  0  0  0  0  0  0
   -0.3640    1.7450   -2.9240 H   0  0  0  0  0  0  0  0  0  0  0  0
   -0.1850   -0.3490   -8.8570 H   0  0  0  0  0  0  0  0  0  0  0  0
   -0.5260    1.8920    0.1790 H   0  0  0  0  0  0  0  0  0  0  0  0
    0.2450    1.9470   -1.4240 H   0  0  0  0  0  0  0  0  0  0  0  0
   -1.8650   -1.4940   -0.4090 H   0  0  0  0  0  0  0  0  0  0  0  0
   -1.7970   -0.1810    0.7910 H   0  0  0  0  0  0  0  0  0  0  0  0
   -0.2450   -1.9470    1.4240 H   0  0  0  0  0  0  0  0  0  0  0  0
    0.5260   -1.8920   -0.1790 H   0  0  0  0  0  0  0  0  0  0  0  0
    1.7970    0.1810   -0.7910 H   0  0  0  0  0  0  0  0  0  0  0  0
    1.8650    1.4940    0.4090 H   0  0  0  0  0  0  0  0  0  0  0  0
   -1.3210    2.2280   -4.9420 H   0  0  0  0  0  0  0  0  0  0  0  0
   -2.5410    0.9600   -4.6770 H   0  0  0  0  0  0  0  0  0  0  0  0
    2.1510    1.7150    2.3270 H   0  0  0  0  0  0  0  0  0  0  0  0
    0.1670   -0.9500   -3.9640 H   0  0  0  0  0  0  0  0  0  0  0  0
    1.3790   -2.4570   -5.4760 H   0  0  0  0  0  0  0  0  0  0  0  0
    2.8180   -0.0680    4.6960 H   0  0  0  0  0  0  0  0  0  0  0  0
    1.5840    1.2140    4.6430 H   0  0  0  0  0  0  0  0  0  0  0  0
    3.8080    0.3900    1.1010 H   0  0  0  0  0  0  0  0  0  0  0  0
    4.1550   -0.5660    2.5610 H   0  0  0  0  0  0  0  0  0  0  0  0
    4.6820    2.4040    2.1610 H   0  0  0  0  0  0  0  0  0  0  0  0
    5.8980    1.1070    2.2500 H   0  0  0  0  0  0  0  0  0  0  0  0
    3.6650    1.9240    5.7910 H   0  0  0  0  0  0  0  0  0  0  0  0
    3.2970    2.9090    4.3550 H   0  0  0  0  0  0  0  0  0  0  0  0
    5.6660    2.3940    4.3760 H   0  0  0  0  0  0  0  0  0  0  0  0
    5.3250    0.6570    4.5610 H   0  0  0  0  0  0  0  0  0  0  0  0
  1  2  1  0  0  0  0
  1  5  1  0  0  0  0
  1 13  2  0  0  0  0
  2  9  1  0  0  0  0
  2 10  1  0  0  0  0
  3  4  1  0  0  0  0
  3 11  1  0  0  0  0
  3 12  1  0  0  0  0
  4 15  2  0  0  0  0
  4 16  1  0  0  0  0
  5 14  1  0  0  0  0
  5 27  1  0  0  0  0
  6  7  2  0  0  0  0
  6  8  1  0  0  0  0
  6 19  1  0  0  0  0
  7 14  1  0  0  0  0
  7 17  1  0  0  0  0
  8 18  2  0  0  0  0
  8 28  1  0  0  0  0
  9 12  1  0  0  0  0
  9 29  1  0  0  0  0
  9 30  1  0  0  0  0
 10 11  1  0  0  0  0
 10 31  1  0  0  0  0
 10 32  1  0  0  0  0
 11 33  1  0  0  0  0
 11 34  1  0  0  0  0
 12 35  1  0  0  0  0
 12 36  1  0  0  0  0
 14 37  1  0  0  0  0
 14 38  1  0  0  0  0
 16 22  1  0  0  0  0
 16 23  1  0  0  0  0
 16 39  1  0  0  0  0
 17 20  2  0  0  0  0
 17 40  1  0  0  0  0
 18 20  1  0  0  0  0
 18 21  1  0  0  0  0
 20 41  1  0  0  0  0
 22 25  1  0  0  0  0
 22 42  1  0  0  0  0
 22 43  1  0  0  0  0
 23 24  1  0  0  0  0
 23 44  1  0  0  0  0
 23 45  1  0  0  0  0
 24 26  1  0  0  0  0
 24 46  1  0  0  0  0
 24 47  1  0  0  0  0
 25 26  1  0  0  0  0
 25 48  1  0  0  0  0
 25 49  1  0  0  0  0
 26 50  1  0  0  0  0
 26 51  1  0  0  0  0
M  END
>  <$CLUSTER>
710

>  <INDEX>
462857

$$$$
Tripos 1544-00533
  MOE2020           3D

 42 45  0  0  0  0  0  0  0  0999 V2000
    0.2940   -0.6140    0.0840 N   0  0  0  0  0  0  0  0  0  0  0  0
   -0.5080    0.3750   -0.4600 C   0  0  0  0  0  0  0  0  0  0  0  0
   -1.6580    0.2650   -1.2230 C   0  0  0  0  0  0  0  0  0  0  0  0
    1.4460   -0.5470    0.8470 C   0  0  0  0  0  0  0  0  0  0  0  0
   -0.0170   -1.9120   -0.1060 N   0  0  0  0  0  0  0  0  0  0  0  0
    0.9170   -2.6070    0.5240 N   0  0  0  0  0  0  0  0  0  0  0  0
   -0.2180    1.6960   -0.2810 O   0  0  0  0  0  0  0  0  0  0  0  0
    1.8290   -1.7790    1.1190 N   0  0  0  0  0  0  0  0  0  0  0  0
   -1.1630    2.4790   -0.9180 N   0  0  0  0  0  0  0  0  0  0  0  0
   -2.0110    1.6130   -1.4720 C   0  0  0  0  0  0  0  0  0  0  0  0
    2.9470    6.1610    4.8250 C   0  0  0  0  0  0  0  0  0  0  0  0
    3.2570    5.9380    6.6090 S   0  0  0  0  0  0  0  0  0  0  0  0
    1.7260    7.4900    4.5720 S   0  0  0  0  0  0  0  0  0  0  0  0
    2.1310    0.6920    1.2760 C   0  0  0  0  0  0  0  0  0  0  0  0
    2.5230    4.8450    4.1420 C   0  0  0  0  0  0  0  0  0  0  0  0
    1.3460    1.2720    2.3070 O   0  0  0  0  0  0  0  0  0  0  0  0
    3.3290    4.3200    3.1360 C   0  0  0  0  0  0  0  0  0  0  0  0
    1.3560    4.1800    4.5140 C   0  0  0  0  0  0  0  0  0  0  0  0
   -2.3880   -0.9340   -1.6950 C   0  0  0  0  0  0  0  0  0  0  0  0
    1.8050    2.4570    2.8630 C   0  0  0  0  0  0  0  0  0  0  0  0
    2.9740    3.1290    2.4960 C   0  0  0  0  0  0  0  0  0  0  0  0
    1.0000    2.9910    3.8750 C   0  0  0  0  0  0  0  0  0  0  0  0
   -3.1850    2.0150   -2.2570 C   0  0  0  0  0  0  0  0  0  0  0  0
    0.9020    7.2390    6.1690 C   0  0  0  0  0  0  0  0  0  0  0  0
    2.0030    7.1090    7.2060 C   0  0  0  0  0  0  0  0  0  0  0  0
    3.8810    6.4580    4.3480 H   0  0  0  0  0  0  0  0  0  0  0  0
    2.2140    1.3820    0.4370 H   0  0  0  0  0  0  0  0  0  0  0  0
    3.1270    0.4570    1.6520 H   0  0  0  0  0  0  0  0  0  0  0  0
    4.2330    4.8350    2.8480 H   0  0  0  0  0  0  0  0  0  0  0  0
    0.7290    4.5840    5.2950 H   0  0  0  0  0  0  0  0  0  0  0  0
   -1.8770   -1.8310   -1.3460 H   0  0  0  0  0  0  0  0  0  0  0  0
   -2.4200   -0.9350   -2.7850 H   0  0  0  0  0  0  0  0  0  0  0  0
   -3.4050   -0.9190   -1.3020 H   0  0  0  0  0  0  0  0  0  0  0  0
    3.6040    2.7270    1.7160 H   0  0  0  0  0  0  0  0  0  0  0  0
    0.0950    2.4780    4.1650 H   0  0  0  0  0  0  0  0  0  0  0  0
   -3.7150    1.1260   -2.5990 H   0  0  0  0  0  0  0  0  0  0  0  0
   -2.8630    2.6000   -3.1180 H   0  0  0  0  0  0  0  0  0  0  0  0
   -3.8480    2.6170   -1.6360 H   0  0  0  0  0  0  0  0  0  0  0  0
    0.3000    6.3310    6.1430 H   0  0  0  0  0  0  0  0  0  0  0  0
    0.2640    8.0920    6.4020 H   0  0  0  0  0  0  0  0  0  0  0  0
    2.4640    8.0830    7.3710 H   0  0  0  0  0  0  0  0  0  0  0  0
    1.5800    6.7440    8.1420 H   0  0  0  0  0  0  0  0  0  0  0  0
  1  2  1  0  0  0  0
  1  4  1  0  0  0  0
  1  5  1  0  0  0  0
  2  3  2  0  0  0  0
  2  7  1  0  0  0  0
  3 10  1  0  0  0  0
  3 19  1  0  0  0  0
  4  8  2  0  0  0  0
  4 14  1  0  0  0  0
  5  6  2  0  0  0  0
  6  8  1  0  0  0  0
  7  9  1  0  0  0  0
  9 10  2  0  0  0  0
 10 23  1  0  0  0  0
 11 12  1  0  0  0  0
 11 13  1  0  0  0  0
 11 15  1  0  0  0  0
 11 26  1  0  0  0  0
 12 25  1  0  0  0  0
 13 24  1  0  0  0  0
 14 16  1  0  0  0  0
 14 27  1  0  0  0  0
 14 28  1  0  0  0  0
 15 17  2  0  0  0  0
 15 18  1  0  0  0  0
 16 20  1  0  0  0  0
 17 21  1  0  0  0  0
 17 29  1  0  0  0  0
 18 22  2  0  0  0  0
 18 30  1  0  0  0  0
 19 31  1  0  0  0  0
 19 32  1  0  0  0  0
 19 33  1  0  0  0  0
 20 21  2  0  0  0  0
 20 22  1  0  0  0  0
 21 34  1  0  0  0  0
 22 35  1  0  0  0  0
 23 36  1  0  0  0  0
 23 37  1  0  0  0  0
 23 38  1  0  0  0  0
 24 25  1  0  0  0  0
 24 39  1  0  0  0  0
 24 40  1  0  0  0  0
 25 41  1  0  0  0  0
 25 42  1  0  0  0  0
M  END
>  <$CLUSTER>
711

>  <INDEX>
463194

$$$$
Tripos 1545-04137
  MOE2020           3D

 51 52  0  0  1  0  0  0  0  0999 V2000
    0.1260   -1.1620    0.9620 N   0  0  0  0  0  0  0  0  0  0  0  0
    0.2560   -0.6850   -0.4310 C   0  0  3  0  0  0  0  0  0  0  0  0
   -0.4470    0.6410   -0.7030 C   0  0  0  0  0  0  0  0  0  0  0  0
    1.0590   -0.9310    1.9740 C   0  0  0  0  0  0  0  0  0  0  0  0
   -1.0350    0.9010   -1.9550 C   0  0  0  0  0  0  0  0  0  0  0  0
   -1.6720    2.1160   -2.2280 C   0  0  0  0  0  0  0  0  0  0  0  0
    1.9470   -0.6920   -1.1280 S   0  0  0  0  0  0  0  0  0  0  0  0
   -0.5190    1.6550    0.2680 C   0  0  0  0  0  0  0  0  0  0  0  0
   -1.7310    3.1000   -1.2470 C   0  0  0  0  0  0  0  0  0  0  0  0
   -1.0960   -1.9040    1.2950 C   0  0  0  0  0  0  0  0  0  0  0  0
    2.3350   -0.2490    1.5460 C   0  0  0  0  0  0  0  0  0  0  0  0
   -2.3840    4.3540   -1.5220 N   0  0  0  0  0  0  0  0  0  0  0  0
    0.8970   -1.2440    3.1560 O   0  0  0  0  0  0  0  0  0  0  0  0
   -1.1550    2.8700   -0.0010 C   0  0  0  0  0  0  0  0  0  0  0  0
    2.9400   -0.9610    0.3580 C   0  0  0  0  0  0  0  0  0  0  0  0
   -0.9850   -0.0590   -2.9330 O   0  0  0  0  0  0  0  0  0  0  0  0
   -0.9220   -3.3970    1.0660 C   0  0  0  0  0  0  0  0  0  0  0  0
   -3.0880    4.6020   -2.7870 C   0  0  0  0  0  0  0  0  0  0  0  0
   -2.3860    5.4600   -0.5550 C   0  0  0  0  0  0  0  0  0  0  0  0
   -0.6460   -3.7480   -0.4020 C   0  0  0  0  0  0  0  0  0  0  0  0
   -2.1830   -4.1450    1.5360 C   0  0  0  0  0  0  0  0  0  0  0  0
   -2.1340    5.1230   -3.8520 C   0  0  0  0  0  0  0  0  0  0  0  0
   -3.5430    5.3290    0.4240 C   0  0  0  0  0  0  0  0  0  0  0  0
   -0.2810   -1.4600   -0.9780 H   0  0  0  0  0  0  0  0  0  0  0  0
   -2.1160    2.2890   -3.1970 H   0  0  0  0  0  0  0  0  0  0  0  0
   -0.0750    1.4920    1.2390 H   0  0  0  0  0  0  0  0  0  0  0  0
   -1.9120   -1.5420    0.6690 H   0  0  0  0  0  0  0  0  0  0  0  0
   -1.3400   -1.7330    2.3440 H   0  0  0  0  0  0  0  0  0  0  0  0
    3.0450   -0.2630    2.3730 H   0  0  0  0  0  0  0  0  0  0  0  0
    2.1160    0.7830    1.2730 H   0  0  0  0  0  0  0  0  0  0  0  0
   -1.2000    3.6340    0.7610 H   0  0  0  0  0  0  0  0  0  0  0  0
    3.9470   -0.5800    0.1880 H   0  0  0  0  0  0  0  0  0  0  0  0
    2.9860   -2.0300    0.5680 H   0  0  0  0  0  0  0  0  0  0  0  0
   -1.4060    0.1830   -3.7610 H   0  0  0  0  0  0  0  0  0  0  0  0
   -0.0510   -3.7060    1.6450 H   0  0  0  0  0  0  0  0  0  0  0  0
   -3.8720    5.3410   -2.6190 H   0  0  0  0  0  0  0  0  0  0  0  0
   -3.5350    3.6700   -3.1340 H   0  0  0  0  0  0  0  0  0  0  0  0
   -2.4800    6.4030   -1.0930 H   0  0  0  0  0  0  0  0  0  0  0  0
   -1.4480    5.4500   -0.0010 H   0  0  0  0  0  0  0  0  0  0  0  0
   -1.4990   -3.4520   -1.0130 H   0  0  0  0  0  0  0  0  0  0  0  0
   -0.4880   -4.8220   -0.4950 H   0  0  0  0  0  0  0  0  0  0  0  0
    0.2450   -3.2190   -0.7410 H   0  0  0  0  0  0  0  0  0  0  0  0
   -3.0390   -3.8210    0.9450 H   0  0  0  0  0  0  0  0  0  0  0  0
   -2.3640   -3.9260    2.5880 H   0  0  0  0  0  0  0  0  0  0  0  0
   -2.0380   -5.2180    1.4080 H   0  0  0  0  0  0  0  0  0  0  0  0
   -1.6830    6.0550   -3.5110 H   0  0  0  0  0  0  0  0  0  0  0  0
   -2.6840    5.3020   -4.7760 H   0  0  0  0  0  0  0  0  0  0  0  0
   -1.3520    4.3850   -4.0310 H   0  0  0  0  0  0  0  0  0  0  0  0
   -4.4850    5.3380   -0.1240 H   0  0  0  0  0  0  0  0  0  0  0  0
   -3.5220    6.1630    1.1250 H   0  0  0  0  0  0  0  0  0  0  0  0
   -3.4510    4.3910    0.9720 H   0  0  0  0  0  0  0  0  0  0  0  0
  1  2  1  0  0  0  0
  1  4  1  0  0  0  0
  1 10  1  0  0  0  0
  2  3  1  0  0  0  0
  2  7  1  0  0  0  0
  2 24  1  0  0  0  0
  3  5  2  0  0  0  0
  3  8  1  0  0  0  0
  4 11  1  0  0  0  0
  4 13  2  0  0  0  0
  5  6  1  0  0  0  0
  5 16  1  0  0  0  0
  6  9  2  0  0  0  0
  6 25  1  0  0  0  0
  7 15  1  0  0  0  0
  8 14  2  0  0  0  0
  8 26  1  0  0  0  0
  9 12  1  0  0  0  0
  9 14  1  0  0  0  0
 10 17  1  0  0  0  0
 10 27  1  0  0  0  0
 10 28  1  0  0  0  0
 11 15  1  0  0  0  0
 11 29  1  0  0  0  0
 11 30  1  0  0  0  0
 12 18  1  0  0  0  0
 12 19  1  0  0  0  0
 14 31  1  0  0  0  0
 15 32  1  0  0  0  0
 15 33  1  0  0  0  0
 16 34  1  0  0  0  0
 17 20  1  0  0  0  0
 17 21  1  0  0  0  0
 17 35  1  0  0  0  0
 18 22  1  0  0  0  0
 18 36  1  0  0  0  0
 18 37  1  0  0  0  0
 19 23  1  0  0  0  0
 19 38  1  0  0  0  0
 19 39  1  0  0  0  0
 20 40  1  0  0  0  0
 20 41  1  0  0  0  0
 20 42  1  0  0  0  0
 21 43  1  0  0  0  0
 21 44  1  0  0  0  0
 21 45  1  0  0  0  0
 22 46  1  0  0  0  0
 22 47  1  0  0  0  0
 22 48  1  0  0  0  0
 23 49  1  0  0  0  0
 23 50  1  0  0  0  0
 23 51  1  0  0  0  0
M  END
>  <$CLUSTER>
712

>  <INDEX>
463601

$$$$
Princeton Biomolecular OSSK_126891
  MOE2020           3D

 53 55  0  0  1  0  0  0  0  0999 V2000
   -1.6130    1.3930    0.3070 C   0  0  0  0  0  0  0  0  0  0  0  0
   -2.0570    0.7530    1.4620 C   0  0  0  0  0  0  0  0  0  0  0  0
    4.1530    0.9710   -3.3550 N   0  3  3  0  0  0  0  0  0  0  0  0
   -0.4770    0.9310   -0.3640 C   0  0  0  0  0  0  0  0  0  0  0  0
   -1.3650   -0.3530    1.9510 C   0  0  0  0  0  0  0  0  0  0  0  0
    0.2220   -0.1780    0.1220 C   0  0  0  0  0  0  0  0  0  0  0  0
    3.5790   -0.3920   -3.4240 C   0  0  0  0  0  0  0  0  0  0  0  0
    1.3440   -0.7280   -0.4390 O   0  0  0  0  0  0  0  0  0  0  0  0
    4.9710    1.3050   -4.5780 C   0  0  0  0  0  0  0  0  0  0  0  0
    3.0790   -0.8800   -2.0650 C   0  0  3  0  0  0  0  0  0  0  0  0
    1.8440   -0.1120   -1.6260 C   0  0  0  0  0  0  0  0  0  0  0  0
   -0.2310   -0.8160    1.2830 C   0  0  0  0  0  0  0  0  0  0  0  0
    6.2610    0.4850   -4.6570 C   0  0  0  0  0  0  0  0  0  0  0  0
    4.1310   -0.6780   -1.1230 O   0  0  0  0  0  0  0  0  0  0  0  0
   -2.5100    2.5150   -0.0590 C   0  0  0  0  0  0  0  0  0  0  0  0
    4.8070    3.6980   -3.5650 O   0  0  0  0  0  0  0  0  0  0  0  0
   -3.2570    2.7350    1.2600 C   0  0  0  0  0  0  0  0  0  0  0  0
   -3.2900    1.3830    1.9780 C   0  0  0  0  0  0  0  0  0  0  0  0
    3.1370    2.0600   -3.0890 C   0  0  0  0  0  0  0  0  0  0  0  0
    3.7450    3.3600   -2.6320 C   0  0  0  0  0  0  0  0  0  0  0  0
    7.4190    0.9500   -4.0360 C   0  0  0  0  0  0  0  0  0  0  0  0
    6.2540   -0.7610   -5.2820 C   0  0  0  0  0  0  0  0  0  0  0  0
    7.4220   -1.5230   -5.3230 C   0  0  0  0  0  0  0  0  0  0  0  0
    8.5850    0.1860   -4.0790 C   0  0  0  0  0  0  0  0  0  0  0  0
    8.5870   -1.0490   -4.7240 C   0  0  0  0  0  0  0  0  0  0  0  0
    4.7630    0.9470   -2.5510 H   0  0  0  0  0  0  0  0  0  0  0  0
   -0.1390    1.4320   -1.2590 H   0  0  0  0  0  0  0  0  0  0  0  0
   -1.7060   -0.8510    2.8460 H   0  0  0  0  0  0  0  0  0  0  0  0
    4.3470   -1.0780   -3.7820 H   0  0  0  0  0  0  0  0  0  0  0  0
    2.7430   -0.3850   -4.1230 H   0  0  0  0  0  0  0  0  0  0  0  0
    5.2300    2.3630   -4.5480 H   0  0  0  0  0  0  0  0  0  0  0  0
    4.3720    1.1030   -5.4660 H   0  0  0  0  0  0  0  0  0  0  0  0
    2.8050   -1.9330   -2.1300 H   0  0  0  0  0  0  0  0  0  0  0  0
    2.1060    0.9260   -1.4220 H   0  0  0  0  0  0  0  0  0  0  0  0
    1.0870   -0.1490   -2.4090 H   0  0  0  0  0  0  0  0  0  0  0  0
    0.3020   -1.6740    1.6650 H   0  0  0  0  0  0  0  0  0  0  0  0
    4.3300    0.2610   -1.1070 H   0  0  0  0  0  0  0  0  0  0  0  0
   -3.1910    2.2370   -0.8630 H   0  0  0  0  0  0  0  0  0  0  0  0
   -1.9450    3.4000   -0.3510 H   0  0  0  0  0  0  0  0  0  0  0  0
    5.1950    4.5270   -3.2750 H   0  0  0  0  0  0  0  0  0  0  0  0
   -4.2720    3.0810    1.0640 H   0  0  0  0  0  0  0  0  0  0  0  0
   -2.7340    3.4710    1.8700 H   0  0  0  0  0  0  0  0  0  0  0  0
   -3.2530    1.5050    3.0610 H   0  0  0  0  0  0  0  0  0  0  0  0
   -4.1760    0.8080    1.7070 H   0  0  0  0  0  0  0  0  0  0  0  0
    2.4530    1.7100   -2.3160 H   0  0  0  0  0  0  0  0  0  0  0  0
    2.5820    2.2450   -4.0090 H   0  0  0  0  0  0  0  0  0  0  0  0
    2.9880    4.1440   -2.6300 H   0  0  0  0  0  0  0  0  0  0  0  0
    4.1540    3.2470   -1.6280 H   0  0  0  0  0  0  0  0  0  0  0  0
    7.4130    1.9000   -3.5230 H   0  0  0  0  0  0  0  0  0  0  0  0
    5.3470   -1.1350   -5.7330 H   0  0  0  0  0  0  0  0  0  0  0  0
    7.4230   -2.4820   -5.8200 H   0  0  0  0  0  0  0  0  0  0  0  0
    9.4870    0.5520   -3.6120 H   0  0  0  0  0  0  0  0  0  0  0  0
    9.4910   -1.6390   -4.7600 H   0  0  0  0  0  0  0  0  0  0  0  0
  1  2  2  0  0  0  0
  1  4  1  0  0  0  0
  1 15  1  0  0  0  0
  2  5  1  0  0  0  0
  2 18  1  0  0  0  0
  3  7  1  0  0  0  0
  3  9  1  0  0  0  0
  3 19  1  0  0  0  0
  3 26  1  0  0  0  0
  4  6  2  0  0  0  0
  4 27  1  0  0  0  0
  5 12  2  0  0  0  0
  5 28  1  0  0  0  0
  6  8  1  0  0  0  0
  6 12  1  0  0  0  0
  7 10  1  0  0  0  0
  7 29  1  0  0  0  0
  7 30  1  0  0  0  0
  8 11  1  0  0  0  0
  9 13  1  0  0  0  0
  9 31  1  0  0  0  0
  9 32  1  0  0  0  0
 10 11  1  0  0  0  0
 10 14  1  0  0  0  0
 10 33  1  0  0  0  0
 11 34  1  0  0  0  0
 11 35  1  0  0  0  0
 12 36  1  0  0  0  0
 13 21  1  0  0  0  0
 13 22  2  0  0  0  0
 14 37  1  0  0  0  0
 15 17  1  0  0  0  0
 15 38  1  0  0  0  0
 15 39  1  0  0  0  0
 16 20  1  0  0  0  0
 16 40  1  0  0  0  0
 17 18  1  0  0  0  0
 17 41  1  0  0  0  0
 17 42  1  0  0  0  0
 18 43  1  0  0  0  0
 18 44  1  0  0  0  0
 19 20  1  0  0  0  0
 19 45  1  0  0  0  0
 19 46  1  0  0  0  0
 20 47  1  0  0  0  0
 20 48  1  0  0  0  0
 21 24  2  0  0  0  0
 21 49  1  0  0  0  0
 22 23  1  0  0  0  0
 22 50  1  0  0  0  0
 23 25  2  0  0  0  0
 23 51  1  0  0  0  0
 24 25  1  0  0  0  0
 24 52  1  0  0  0  0
 25 53  1  0  0  0  0
M  CHG  1   3   1
M  END
>  <$CLUSTER>
713

>  <INDEX>
578156

$$$$
Tripos 1547-01344
  MOE2020           3D

 56 59  0  0  1  0  0  0  0  0999 V2000
   -1.0620   -0.4350    0.3360 C   0  0  0  0  0  0  0  0  0  0  0  0
   -1.6520   -1.6290   -0.0660 N   0  0  0  0  0  0  0  0  0  0  0  0
    0.2240    0.0010   -0.1110 C   0  0  0  0  0  0  0  0  0  0  0  0
   -0.0580    2.0210    1.1320 N   0  3  0  0  0  0  0  0  0  0  0  0
    0.6970    1.2720    0.3090 C   0  0  0  0  0  0  0  0  0  0  0  0
   -1.7670    0.4020    1.2200 C   0  0  0  0  0  0  0  0  0  0  0  0
   -3.8840   -3.2850   -0.8750 N   0  3  0  0  0  0  0  0  0  0  0  0
   -1.2440    1.6250    1.5980 C   0  0  0  0  0  0  0  0  0  0  0  0
   -1.7610   -1.9930   -1.4690 C   0  0  0  0  0  0  0  0  0  0  0  0
   -2.2440   -2.5120    0.9270 C   0  0  0  0  0  0  0  0  0  0  0  0
   -5.3060   -3.5940   -1.2290 C   0  0  0  0  0  0  0  0  0  0  0  0
   -3.2540   -2.2950   -1.8380 C   0  0  0  0  0  0  0  0  0  0  0  0
   -3.7380   -2.8150    0.5620 C   0  0  0  0  0  0  0  0  0  0  0  0
   -5.8150   -4.8430   -0.5260 C   0  0  3  0  0  0  0  0  0  0  0  0
   -5.1470   -6.1280   -1.0310 C   0  0  0  0  0  0  0  0  0  0  0  0
   -5.6910   -7.3830   -0.3970 C   0  0  0  0  0  0  0  0  0  0  0  0
    1.1060   -0.7550   -0.9200 C   0  0  0  0  0  0  0  0  0  0  0  0
   -5.5210   -4.7460    0.8880 O   0  0  0  0  0  0  0  0  0  0  0  0
    1.9460    1.7650   -0.1010 C   0  0  0  0  0  0  0  0  0  0  0  0
   -2.0480    2.5150    2.5590 C   0  0  0  0  0  0  0  0  0  0  0  0
   -6.7960   -8.0320   -0.9550 C   0  0  0  0  0  0  0  0  0  0  0  0
   -5.1440   -7.8610    0.7970 C   0  0  0  0  0  0  0  0  0  0  0  0
    2.3520   -0.2620   -1.3240 C   0  0  0  0  0  0  0  0  0  0  0  0
    2.7680    1.0000   -0.9210 C   0  0  0  0  0  0  0  0  0  0  0  0
   -5.6700   -9.0030    1.4030 C   0  0  0  0  0  0  0  0  0  0  0  0
   -7.3210   -9.1730   -0.3470 C   0  0  0  0  0  0  0  0  0  0  0  0
   -6.7570   -9.6580    0.8300 C   0  0  0  0  0  0  0  0  0  0  0  0
    0.2900    2.9270    1.4110 H   0  0  0  0  0  0  0  0  0  0  0  0
   -2.7250    0.0870    1.6070 H   0  0  0  0  0  0  0  0  0  0  0  0
   -3.3790   -4.1550   -0.9620 H   0  0  0  0  0  0  0  0  0  0  0  0
   -1.1570   -2.8810   -1.6580 H   0  0  0  0  0  0  0  0  0  0  0  0
   -1.3980   -1.1690   -2.0840 H   0  0  0  0  0  0  0  0  0  0  0  0
   -2.2030   -2.0330    1.9050 H   0  0  0  0  0  0  0  0  0  0  0  0
   -1.6840   -3.4470    0.9570 H   0  0  0  0  0  0  0  0  0  0  0  0
   -5.3750   -3.7450   -2.3060 H   0  0  0  0  0  0  0  0  0  0  0  0
   -5.9310   -2.7490   -0.9400 H   0  0  0  0  0  0  0  0  0  0  0  0
   -3.8200   -1.3640   -1.8070 H   0  0  0  0  0  0  0  0  0  0  0  0
   -3.2910   -2.7100   -2.8450 H   0  0  0  0  0  0  0  0  0  0  0  0
   -4.1130   -3.5930    1.2270 H   0  0  0  0  0  0  0  0  0  0  0  0
   -4.3250   -1.9070    0.6970 H   0  0  0  0  0  0  0  0  0  0  0  0
   -6.8840   -4.8980   -0.7300 H   0  0  0  0  0  0  0  0  0  0  0  0
   -4.0800   -6.0690   -0.8160 H   0  0  0  0  0  0  0  0  0  0  0  0
   -5.2980   -6.1940   -2.1090 H   0  0  0  0  0  0  0  0  0  0  0  0
    0.8080   -1.7440   -1.2360 H   0  0  0  0  0  0  0  0  0  0  0  0
   -4.5670   -4.7020    0.9840 H   0  0  0  0  0  0  0  0  0  0  0  0
    2.2700    2.7430    0.2220 H   0  0  0  0  0  0  0  0  0  0  0  0
   -1.4950    3.4350    2.7510 H   0  0  0  0  0  0  0  0  0  0  0  0
   -2.2080    1.9850    3.4980 H   0  0  0  0  0  0  0  0  0  0  0  0
   -3.0110    2.7570    2.1100 H   0  0  0  0  0  0  0  0  0  0  0  0
   -7.2450   -7.6490   -1.8600 H   0  0  0  0  0  0  0  0  0  0  0  0
   -4.3120   -7.3450    1.2520 H   0  0  0  0  0  0  0  0  0  0  0  0
    2.9920   -0.8650   -1.9510 H   0  0  0  0  0  0  0  0  0  0  0  0
    3.7240    1.3850   -1.2430 H   0  0  0  0  0  0  0  0  0  0  0  0
   -5.2340   -9.3790    2.3170 H   0  0  0  0  0  0  0  0  0  0  0  0
   -8.1650   -9.6800   -0.7900 H   0  0  0  0  0  0  0  0  0  0  0  0
   -7.1630  -10.5420    1.2990 H   0  0  0  0  0  0  0  0  0  0  0  0
  1  2  1  0  0  0  0
  1  3  1  0  0  0  0
  1  6  2  0  0  0  0
  2  9  1  0  0  0  0
  2 10  1  0  0  0  0
  3  5  2  0  0  0  0
  3 17  1  0  0  0  0
  4  5  1  0  0  0  0
  4  8  2  0  0  0  0
  4 28  1  0  0  0  0
  5 19  1  0  0  0  0
  6  8  1  0  0  0  0
  6 29  1  0  0  0  0
  7 11  1  0  0  0  0
  7 12  1  0  0  0  0
  7 13  1  0  0  0  0
  7 30  1  0  0  0  0
  8 20  1  0  0  0  0
  9 12  1  0  0  0  0
  9 31  1  0  0  0  0
  9 32  1  0  0  0  0
 10 13  1  0  0  0  0
 10 33  1  0  0  0  0
 10 34  1  0  0  0  0
 11 14  1  0  0  0  0
 11 35  1  0  0  0  0
 11 36  1  0  0  0  0
 12 37  1  0  0  0  0
 12 38  1  0  0  0  0
 13 39  1  0  0  0  0
 13 40  1  0  0  0  0
 14 15  1  0  0  0  0
 14 18  1  0  0  0  0
 14 41  1  0  0  0  0
 15 16  1  0  0  0  0
 15 42  1  0  0  0  0
 15 43  1  0  0  0  0
 16 21  1  0  0  0  0
 16 22  2  0  0  0  0
 17 23  2  0  0  0  0
 17 44  1  0  0  0  0
 18 45  1  0  0  0  0
 19 24  2  0  0  0  0
 19 46  1  0  0  0  0
 20 47  1  0  0  0  0
 20 48  1  0  0  0  0
 20 49  1  0  0  0  0
 21 26  2  0  0  0  0
 21 50  1  0  0  0  0
 22 25  1  0  0  0  0
 22 51  1  0  0  0  0
 23 24  1  0  0  0  0
 23 52  1  0  0  0  0
 24 53  1  0  0  0  0
 25 27  2  0  0  0  0
 25 54  1  0  0  0  0
 26 27  1  0  0  0  0
 26 55  1  0  0  0  0
 27 56  1  0  0  0  0
M  CHG  1   4   1
M  CHG  1   7   1
M  END
>  <$CLUSTER>
714

>  <INDEX>
464732

$$$$
Tripos 1547-01108
  MOE2020           3D

 53 55  0  0  1  0  0  0  0  0999 V2000
    0.5110    0.3500    0.0410 C   0  0  0  0  0  0  0  0  0  0  0  0
   -4.0460   -3.0130   -0.3550 N   0  0  0  0  0  0  0  0  0  0  0  0
   -0.6720   -0.5690   -0.0670 C   0  0  0  0  0  0  0  0  0  0  0  0
   -2.9340   -2.1540   -0.2530 C   0  0  0  0  0  0  0  0  0  0  0  0
   -1.6910   -2.7070   -0.3320 N   0  0  0  0  0  0  0  0  0  0  0  0
   -6.0820   -4.5710   -1.6870 N   0  3  0  0  0  0  0  0  0  0  0  0
   -0.5740   -1.9010   -0.2360 C   0  0  0  0  0  0  0  0  0  0  0  0
   -2.0060    0.1090    0.0270 C   0  0  0  0  0  0  0  0  0  0  0  0
   -3.7940   -4.4400   -0.5370 C   0  0  0  0  0  0  0  0  0  0  0  0
   -5.4200   -2.5270   -0.2850 C   0  0  0  0  0  0  0  0  0  0  0  0
  -10.2370   -6.0520   -1.4510 O   0  0  0  0  0  0  0  0  0  0  0  0
   -3.0800   -0.7710   -0.0780 C   0  0  0  0  0  0  0  0  0  0  0  0
  -10.7160   -6.9480   -0.4730 C   0  0  0  0  0  0  0  0  0  0  0  0
    0.5260    1.0200    1.2260 F   0  0  0  0  0  0  0  0  0  0  0  0
    0.5110    1.2930   -0.9410 F   0  0  0  0  0  0  0  0  0  0  0  0
    1.7040   -0.3010   -0.0500 F   0  0  0  0  0  0  0  0  0  0  0  0
   -6.8720   -5.0900   -2.8470 C   0  0  0  0  0  0  0  0  0  0  0  0
  -12.1470   -6.9850   -0.3940 C   0  0  0  0  0  0  0  0  0  0  0  0
   -6.2310   -3.0690   -1.5140 C   0  0  0  0  0  0  0  0  0  0  0  0
   -4.6180   -4.9660   -1.7640 C   0  0  0  0  0  0  0  0  0  0  0  0
   -8.3700   -5.0370   -2.5930 C   0  0  3  0  0  0  0  0  0  0  0  0
   -8.8300   -6.0260   -1.5140 C   0  0  0  0  0  0  0  0  0  0  0  0
   -8.7270   -3.7140   -2.1250 O   0  0  0  0  0  0  0  0  0  0  0  0
   -9.9710   -7.7440    0.3660 C   0  0  0  0  0  0  0  0  0  0  0  0
  -13.0080   -6.1350   -1.2870 C   0  0  0  0  0  0  0  0  0  0  0  0
  -12.7520   -7.8390    0.5410 C   0  0  0  0  0  0  0  0  0  0  0  0
  -11.9750   -8.6370    1.3790 C   0  0  0  0  0  0  0  0  0  0  0  0
  -10.5880   -8.5890    1.2910 C   0  0  0  0  0  0  0  0  0  0  0  0
   -6.4720   -5.0110   -0.8660 H   0  0  0  0  0  0  0  0  0  0  0  0
    0.4060   -2.3520   -0.2980 H   0  0  0  0  0  0  0  0  0  0  0  0
   -2.1220    1.1740    0.1630 H   0  0  0  0  0  0  0  0  0  0  0  0
   -4.0960   -4.9790    0.3610 H   0  0  0  0  0  0  0  0  0  0  0  0
   -2.7310   -4.6010   -0.7180 H   0  0  0  0  0  0  0  0  0  0  0  0
   -5.4210   -1.4370   -0.3010 H   0  0  0  0  0  0  0  0  0  0  0  0
   -5.8820   -2.8770    0.6380 H   0  0  0  0  0  0  0  0  0  0  0  0
   -4.0800   -0.3660   -0.0220 H   0  0  0  0  0  0  0  0  0  0  0  0
   -6.5840   -6.1250   -3.0330 H   0  0  0  0  0  0  0  0  0  0  0  0
   -6.6440   -4.4860   -3.7250 H   0  0  0  0  0  0  0  0  0  0  0  0
   -7.2860   -2.8360   -1.3680 H   0  0  0  0  0  0  0  0  0  0  0  0
   -5.8710   -2.5750   -2.4170 H   0  0  0  0  0  0  0  0  0  0  0  0
   -4.1910   -4.5510   -2.6770 H   0  0  0  0  0  0  0  0  0  0  0  0
   -4.5490   -6.0530   -1.7920 H   0  0  0  0  0  0  0  0  0  0  0  0
   -8.8520   -5.2940   -3.5360 H   0  0  0  0  0  0  0  0  0  0  0  0
   -8.4610   -7.0220   -1.7570 H   0  0  0  0  0  0  0  0  0  0  0  0
   -8.4310   -5.7170   -0.5480 H   0  0  0  0  0  0  0  0  0  0  0  0
   -8.2660   -3.5650   -1.2960 H   0  0  0  0  0  0  0  0  0  0  0  0
   -8.8930   -7.7150    0.3080 H   0  0  0  0  0  0  0  0  0  0  0  0
  -12.3740   -5.5400   -1.9440 H   0  0  0  0  0  0  0  0  0  0  0  0
  -13.6220   -5.4720   -0.6770 H   0  0  0  0  0  0  0  0  0  0  0  0
  -13.6530   -6.7760   -1.8880 H   0  0  0  0  0  0  0  0  0  0  0  0
  -13.8290   -7.8780    0.6120 H   0  0  0  0  0  0  0  0  0  0  0  0
  -12.4490   -9.2910    2.0950 H   0  0  0  0  0  0  0  0  0  0  0  0
   -9.9860   -9.2070    1.9400 H   0  0  0  0  0  0  0  0  0  0  0  0
  1  3  1  0  0  0  0
  1 14  1  0  0  0  0
  1 15  1  0  0  0  0
  1 16  1  0  0  0  0
  2  4  1  0  0  0  0
  2  9  1  0  0  0  0
  2 10  1  0  0  0  0
  3  7  2  0  0  0  0
  3  8  1  0  0  0  0
  4  5  2  0  0  0  0
  4 12  1  0  0  0  0
  5  7  1  0  0  0  0
  6 17  1  0  0  0  0
  6 19  1  0  0  0  0
  6 20  1  0  0  0  0
  6 29  1  0  0  0  0
  7 30  1  0  0  0  0
  8 12  2  0  0  0  0
  8 31  1  0  0  0  0
  9 20  1  0  0  0  0
  9 32  1  0  0  0  0
  9 33  1  0  0  0  0
 10 19  1  0  0  0  0
 10 34  1  0  0  0  0
 10 35  1  0  0  0  0
 11 13  1  0  0  0  0
 11 22  1  0  0  0  0
 12 36  1  0  0  0  0
 13 18  2  0  0  0  0
 13 24  1  0  0  0  0
 17 21  1  0  0  0  0
 17 37  1  0  0  0  0
 17 38  1  0  0  0  0
 18 25  1  0  0  0  0
 18 26  1  0  0  0  0
 19 39  1  0  0  0  0
 19 40  1  0  0  0  0
 20 41  1  0  0  0  0
 20 42  1  0  0  0  0
 21 22  1  0  0  0  0
 21 23  1  0  0  0  0
 21 43  1  0  0  0  0
 22 44  1  0  0  0  0
 22 45  1  0  0  0  0
 23 46  1  0  0  0  0
 24 28  2  0  0  0  0
 24 47  1  0  0  0  0
 25 48  1  0  0  0  0
 25 49  1  0  0  0  0
 25 50  1  0  0  0  0
 26 27  2  0  0  0  0
 26 51  1  0  0  0  0
 27 28  1  0  0  0  0
 27 52  1  0  0  0  0
 28 53  1  0  0  0  0
M  CHG  1   6   1
M  END
>  <$CLUSTER>
715

>  <INDEX>
464586

$$$$
Chembridge 7916788
  MOE2020           3D

 38 39  0  0  0  0  0  0  0  0999 V2000
    0.5050    2.0520   -0.7350 S   0  0  0  0  0  0  0  0  0  0  0  0
    0.6050    0.4240   -1.2640 N   0  0  0  0  0  0  0  0  0  0  0  0
    1.6930    2.0340    0.5890 C   0  0  0  0  0  0  0  0  0  0  0  0
    1.0520    2.8960   -1.7810 O   0  0  0  0  0  0  0  0  0  0  0  0
   -0.7960    2.3370   -0.1630 O   0  0  0  0  0  0  0  0  0  0  0  0
    1.2650    1.7540    1.9030 C   0  0  0  0  0  0  0  0  0  0  0  0
    3.0340    2.3720    0.3590 C   0  0  0  0  0  0  0  0  0  0  0  0
    0.0220   -0.5940   -0.4320 C   0  0  0  0  0  0  0  0  0  0  0  0
    3.5180    2.0990    2.7120 C   0  0  0  0  0  0  0  0  0  0  0  0
    4.6380    2.1430    4.1220 S   0  0  0  0  0  0  0  0  0  0  0  0
   -1.0630   -2.5590    1.2270 C   0  0  0  0  0  0  0  0  0  0  0  0
    2.1810    1.7790    2.9560 C   0  0  0  0  0  0  0  0  0  0  0  0
    3.9440    2.3950    1.4160 C   0  0  0  0  0  0  0  0  0  0  0  0
    0.8630   -1.5010    0.2200 C   0  0  0  0  0  0  0  0  0  0  0  0
   -1.3610   -0.6700   -0.2530 C   0  0  0  0  0  0  0  0  0  0  0  0
    0.3180   -2.4830    1.0480 C   0  0  0  0  0  0  0  0  0  0  0  0
   -1.9010   -1.6540    0.5760 C   0  0  0  0  0  0  0  0  0  0  0  0
   -1.4770   -3.5710    2.0670 O   0  0  0  0  0  0  0  0  0  0  0  0
    6.1200    1.3660    3.4240 C   0  0  0  0  0  0  0  0  0  0  0  0
   -2.8810   -3.6990    2.2890 C   0  0  0  0  0  0  0  0  0  0  0  0
   -3.0990   -4.8660    3.2360 C   0  0  0  0  0  0  0  0  0  0  0  0
    1.0600    0.1870   -2.1340 H   0  0  0  0  0  0  0  0  0  0  0  0
    0.2280    1.5200    2.0950 H   0  0  0  0  0  0  0  0  0  0  0  0
    3.3640    2.6150   -0.6400 H   0  0  0  0  0  0  0  0  0  0  0  0
    1.8550    1.5510    3.9600 H   0  0  0  0  0  0  0  0  0  0  0  0
    4.9790    2.6420    1.2320 H   0  0  0  0  0  0  0  0  0  0  0  0
    1.9330   -1.4420    0.0830 H   0  0  0  0  0  0  0  0  0  0  0  0
   -2.0110    0.0310   -0.7550 H   0  0  0  0  0  0  0  0  0  0  0  0
    0.9660   -3.1850    1.5510 H   0  0  0  0  0  0  0  0  0  0  0  0
   -2.9700   -1.7150    0.7140 H   0  0  0  0  0  0  0  0  0  0  0  0
    6.9000    1.3240    4.1840 H   0  0  0  0  0  0  0  0  0  0  0  0
    6.4710    1.9510    2.5740 H   0  0  0  0  0  0  0  0  0  0  0  0
    5.8790    0.3550    3.0940 H   0  0  0  0  0  0  0  0  0  0  0  0
   -3.3900   -3.8890    1.3440 H   0  0  0  0  0  0  0  0  0  0  0  0
   -3.2710   -2.7830    2.7340 H   0  0  0  0  0  0  0  0  0  0  0  0
   -2.7070   -5.7780    2.7850 H   0  0  0  0  0  0  0  0  0  0  0  0
   -4.1660   -4.9840    3.4270 H   0  0  0  0  0  0  0  0  0  0  0  0
   -2.5810   -4.6730    4.1750 H   0  0  0  0  0  0  0  0  0  0  0  0
  1  2  1  0  0  0  0
  1  3  1  0  0  0  0
  1  4  2  0  0  0  0
  1  5  2  0  0  0  0
  2  8  1  0  0  0  0
  2 22  1  0  0  0  0
  3  6  2  0  0  0  0
  3  7  1  0  0  0  0
  6 12  1  0  0  0  0
  6 23  1  0  0  0  0
  7 13  2  0  0  0  0
  7 24  1  0  0  0  0
  8 14  2  0  0  0  0
  8 15  1  0  0  0  0
  9 10  1  0  0  0  0
  9 12  2  0  0  0  0
  9 13  1  0  0  0  0
 10 19  1  0  0  0  0
 11 16  2  0  0  0  0
 11 17  1  0  0  0  0
 11 18  1  0  0  0  0
 12 25  1  0  0  0  0
 13 26  1  0  0  0  0
 14 16  1  0  0  0  0
 14 27  1  0  0  0  0
 15 17  2  0  0  0  0
 15 28  1  0  0  0  0
 16 29  1  0  0  0  0
 17 30  1  0  0  0  0
 18 20  1  0  0  0  0
 19 31  1  0  0  0  0
 19 32  1  0  0  0  0
 19 33  1  0  0  0  0
 20 21  1  0  0  0  0
 20 34  1  0  0  0  0
 20 35  1  0  0  0  0
 21 36  1  0  0  0  0
 21 37  1  0  0  0  0
 21 38  1  0  0  0  0
M  END
>  <$CLUSTER>
716

>  <INDEX>
90607

$$$$
Tripos 1554-07659
  MOE2020           3D

 44 45  0  0  0  0  0  0  0  0999 V2000
    0.8590    1.9170   -0.5700 S   0  0  0  0  0  0  0  0  0  0  0  0
    0.3520    0.4420   -1.2820 N   0  0  0  0  0  0  0  0  0  0  0  0
   -0.7100    2.5850   -0.0630 C   0  0  0  0  0  0  0  0  0  0  0  0
    1.3590    2.7750   -1.6280 O   0  0  0  0  0  0  0  0  0  0  0  0
    1.6480    1.6790    0.6210 O   0  0  0  0  0  0  0  0  0  0  0  0
   -5.2630    5.0600    0.6470 C   0  0  0  0  0  0  0  0  0  0  0  0
   -4.3480    4.2480    1.3050 N   0  0  0  0  0  0  0  0  0  0  0  0
   -5.2070    5.4820   -0.5040 O   0  0  0  0  0  0  0  0  0  0  0  0
   -1.4570    3.3980   -0.9310 C   0  0  0  0  0  0  0  0  0  0  0  0
   -1.1730    2.3640    1.2480 C   0  0  0  0  0  0  0  0  0  0  0  0
   -0.0880   -0.6140   -0.4100 C   0  0  0  0  0  0  0  0  0  0  0  0
   -1.5670   -3.5990    2.0890 O   0  0  0  0  0  0  0  0  0  0  0  0
   -3.1280    3.7130    0.7890 C   0  0  0  0  0  0  0  0  0  0  0  0
   -0.9920   -2.6270    1.2970 C   0  0  0  0  0  0  0  0  0  0  0  0
   -2.3830    2.9200    1.6650 C   0  0  0  0  0  0  0  0  0  0  0  0
   -2.6670    3.9520   -0.5060 C   0  0  0  0  0  0  0  0  0  0  0  0
   -1.4380   -0.9750   -0.4100 C   0  0  0  0  0  0  0  0  0  0  0  0
    0.8100   -1.2600    0.4440 C   0  0  0  0  0  0  0  0  0  0  0  0
    0.3550   -2.2670    1.2960 C   0  0  0  0  0  0  0  0  0  0  0  0
   -1.8880   -1.9830    0.4450 C   0  0  0  0  0  0  0  0  0  0  0  0
   -0.7320   -4.4230    2.9110 C   0  0  0  0  0  0  0  0  0  0  0  0
   -6.4260    5.4060    1.5420 C   0  0  0  0  0  0  0  0  0  0  0  0
   -0.5230   -3.7620    4.2700 C   0  0  0  0  0  0  0  0  0  0  0  0
   -1.4670   -5.7500    3.0850 C   0  0  0  0  0  0  0  0  0  0  0  0
    0.3620    0.3180   -2.2840 H   0  0  0  0  0  0  0  0  0  0  0  0
   -4.5710    4.0080    2.2600 H   0  0  0  0  0  0  0  0  0  0  0  0
   -1.0950    3.5950   -1.9290 H   0  0  0  0  0  0  0  0  0  0  0  0
   -0.5910    1.7640    1.9320 H   0  0  0  0  0  0  0  0  0  0  0  0
   -2.7440    2.7370    2.6660 H   0  0  0  0  0  0  0  0  0  0  0  0
   -3.2460    4.5660   -1.1800 H   0  0  0  0  0  0  0  0  0  0  0  0
   -2.1320   -0.4750   -1.0700 H   0  0  0  0  0  0  0  0  0  0  0  0
    1.8530   -0.9810    0.4450 H   0  0  0  0  0  0  0  0  0  0  0  0
    1.0470   -2.7680    1.9560 H   0  0  0  0  0  0  0  0  0  0  0  0
   -2.9310   -2.2640    0.4460 H   0  0  0  0  0  0  0  0  0  0  0  0
    0.2470   -4.5700    2.4560 H   0  0  0  0  0  0  0  0  0  0  0  0
   -6.2870    4.9370    2.5160 H   0  0  0  0  0  0  0  0  0  0  0  0
   -7.3510    5.0440    1.0930 H   0  0  0  0  0  0  0  0  0  0  0  0
   -6.4810    6.4880    1.6640 H   0  0  0  0  0  0  0  0  0  0  0  0
   -1.4890   -3.6030    4.7490 H   0  0  0  0  0  0  0  0  0  0  0  0
   -0.0220   -2.8040    4.1350 H   0  0  0  0  0  0  0  0  0  0  0  0
    0.0910   -4.4080    4.8970 H   0  0  0  0  0  0  0  0  0  0  0  0
   -2.4400   -5.5690    3.5410 H   0  0  0  0  0  0  0  0  0  0  0  0
   -0.8810   -6.4080    3.7270 H   0  0  0  0  0  0  0  0  0  0  0  0
   -1.6040   -6.2200    2.1110 H   0  0  0  0  0  0  0  0  0  0  0  0
  1  2  1  0  0  0  0
  1  3  1  0  0  0  0
  1  4  2  0  0  0  0
  1  5  2  0  0  0  0
  2 11  1  0  0  0  0
  2 25  1  0  0  0  0
  3  9  1  0  0  0  0
  3 10  2  0  0  0  0
  6  7  1  0  0  0  0
  6  8  2  0  0  0  0
  6 22  1  0  0  0  0
  7 13  1  0  0  0  0
  7 26  1  0  0  0  0
  9 16  2  0  0  0  0
  9 27  1  0  0  0  0
 10 15  1  0  0  0  0
 10 28  1  0  0  0  0
 11 17  1  0  0  0  0
 11 18  2  0  0  0  0
 12 14  1  0  0  0  0
 12 21  1  0  0  0  0
 13 15  2  0  0  0  0
 13 16  1  0  0  0  0
 14 19  2  0  0  0  0
 14 20  1  0  0  0  0
 15 29  1  0  0  0  0
 16 30  1  0  0  0  0
 17 20  2  0  0  0  0
 17 31  1  0  0  0  0
 18 19  1  0  0  0  0
 18 32  1  0  0  0  0
 19 33  1  0  0  0  0
 20 34  1  0  0  0  0
 21 23  1  0  0  0  0
 21 24  1  0  0  0  0
 21 35  1  0  0  0  0
 22 36  1  0  0  0  0
 22 37  1  0  0  0  0
 22 38  1  0  0  0  0
 23 39  1  0  0  0  0
 23 40  1  0  0  0  0
 23 41  1  0  0  0  0
 24 42  1  0  0  0  0
 24 43  1  0  0  0  0
 24 44  1  0  0  0  0
M  END
>  <$CLUSTER>
717

>  <INDEX>
467588

$$$$
Tripos 1557-10610
  MOE2020           3D

 45 47  0  0  1  0  0  0  0  0999 V2000
   -1.4930    0.5590    1.7510 S   0  0  0  0  0  0  0  0  0  0  0  0
   -0.7260    0.4640    0.2240 N   0  0  0  0  0  0  0  0  0  0  0  0
   -0.1840   -0.8390   -0.2590 C   0  0  3  0  0  0  0  0  0  0  0  0
   -0.1070    0.6400    2.8620 C   0  0  0  0  0  0  0  0  0  0  0  0
    1.1800   -1.1800    0.2870 C   0  0  0  0  0  0  0  0  0  0  0  0
   -2.1940   -0.6810    2.0230 O   0  0  0  0  0  0  0  0  0  0  0  0
   -2.1910    1.8270    1.8530 O   0  0  0  0  0  0  0  0  0  0  0  0
    0.4490   -0.5480    3.3700 C   0  0  0  0  0  0  0  0  0  0  0  0
    1.5230   -0.4870    4.2600 C   0  0  0  0  0  0  0  0  0  0  0  0
    0.4180    1.8770    3.2520 C   0  0  0  0  0  0  0  0  0  0  0  0
    2.0050   -0.3990    0.7370 O   0  0  0  0  0  0  0  0  0  0  0  0
    2.0420    0.7500    4.6450 C   0  0  0  0  0  0  0  0  0  0  0  0
    1.4910    1.9310    4.1420 C   0  0  0  0  0  0  0  0  0  0  0  0
   -0.0500    1.6780   -0.3160 C   0  0  0  0  0  0  0  0  0  0  0  0
    1.4070   -2.5170    0.1970 O   0  0  0  0  0  0  0  0  0  0  0  0
   -0.1760   -0.8550   -1.7930 C   0  0  0  0  0  0  0  0  0  0  0  0
    2.0880   -1.6750    4.7760 C   0  0  0  0  0  0  0  0  0  0  0  0
    3.1320    0.7970    5.5490 C   0  0  0  0  0  0  0  0  0  0  0  0
    2.6550   -3.0140    0.6680 C   0  0  0  0  0  0  0  0  0  0  0  0
   -0.0770    1.6510   -1.8390 C   0  0  0  0  0  0  0  0  0  0  0  0
    0.5270    0.3640   -2.3870 C   0  0  0  0  0  0  0  0  0  0  0  0
    2.6960   -4.5170    0.4800 C   0  0  0  0  0  0  0  0  0  0  0  0
    3.1610   -1.6160    5.6650 C   0  0  0  0  0  0  0  0  0  0  0  0
    3.6810   -0.3830    6.0510 C   0  0  0  0  0  0  0  0  0  0  0  0
   -0.8480   -1.6140    0.1230 H   0  0  0  0  0  0  0  0  0  0  0  0
    0.0460   -1.5050    3.0720 H   0  0  0  0  0  0  0  0  0  0  0  0
   -0.0080    2.7910    2.8640 H   0  0  0  0  0  0  0  0  0  0  0  0
    1.8960    2.8860    4.4420 H   0  0  0  0  0  0  0  0  0  0  0  0
    0.9840    1.6990    0.0270 H   0  0  0  0  0  0  0  0  0  0  0  0
   -0.5680    2.5690    0.0390 H   0  0  0  0  0  0  0  0  0  0  0  0
   -1.2070   -0.8720   -2.1480 H   0  0  0  0  0  0  0  0  0  0  0  0
    0.3390   -1.7540   -2.1310 H   0  0  0  0  0  0  0  0  0  0  0  0
    1.6870   -2.6330    4.4810 H   0  0  0  0  0  0  0  0  0  0  0  0
    3.5400    1.7510    5.8510 H   0  0  0  0  0  0  0  0  0  0  0  0
    2.7660   -2.7760    1.7260 H   0  0  0  0  0  0  0  0  0  0  0  0
    3.4670   -2.5540    0.1040 H   0  0  0  0  0  0  0  0  0  0  0  0
    0.4930    2.4990   -2.2180 H   0  0  0  0  0  0  0  0  0  0  0  0
   -1.1110    1.7280   -2.1760 H   0  0  0  0  0  0  0  0  0  0  0  0
    0.4150    0.3490   -3.4710 H   0  0  0  0  0  0  0  0  0  0  0  0
    1.5860    0.3270   -2.1300 H   0  0  0  0  0  0  0  0  0  0  0  0
    1.8840   -4.9760    1.0440 H   0  0  0  0  0  0  0  0  0  0  0  0
    3.6500   -4.9020    0.8390 H   0  0  0  0  0  0  0  0  0  0  0  0
    2.5830   -4.7540   -0.5780 H   0  0  0  0  0  0  0  0  0  0  0  0
    3.5890   -2.5280    6.0550 H   0  0  0  0  0  0  0  0  0  0  0  0
    4.5110   -0.3400    6.7410 H   0  0  0  0  0  0  0  0  0  0  0  0
  1  2  1  0  0  0  0
  1  4  1  0  0  0  0
  1  6  2  0  0  0  0
  1  7  2  0  0  0  0
  2  3  1  0  0  0  0
  2 14  1  0  0  0  0
  3  5  1  0  0  0  0
  3 16  1  0  0  0  0
  3 25  1  0  0  0  0
  4  8  2  0  0  0  0
  4 10  1  0  0  0  0
  5 11  2  0  0  0  0
  5 15  1  0  0  0  0
  8  9  1  0  0  0  0
  8 26  1  0  0  0  0
  9 12  2  0  0  0  0
  9 17  1  0  0  0  0
 10 13  2  0  0  0  0
 10 27  1  0  0  0  0
 12 13  1  0  0  0  0
 12 18  1  0  0  0  0
 13 28  1  0  0  0  0
 14 20  1  0  0  0  0
 14 29  1  0  0  0  0
 14 30  1  0  0  0  0
 15 19  1  0  0  0  0
 16 21  1  0  0  0  0
 16 31  1  0  0  0  0
 16 32  1  0  0  0  0
 17 23  2  0  0  0  0
 17 33  1  0  0  0  0
 18 24  2  0  0  0  0
 18 34  1  0  0  0  0
 19 22  1  0  0  0  0
 19 35  1  0  0  0  0
 19 36  1  0  0  0  0
 20 21  1  0  0  0  0
 20 37  1  0  0  0  0
 20 38  1  0  0  0  0
 21 39  1  0  0  0  0
 21 40  1  0  0  0  0
 22 41  1  0  0  0  0
 22 42  1  0  0  0  0
 22 43  1  0  0  0  0
 23 24  1  0  0  0  0
 23 44  1  0  0  0  0
 24 45  1  0  0  0  0
M  END
>  <$CLUSTER>
718

>  <INDEX>
471448

$$$$
Tripos 1557-07473
  MOE2020           3D

 35 36  0  0  0  0  0  0  0  0999 V2000
   -0.7370   -0.7140    2.0190 S   0  0  0  0  0  0  0  0  0  0  0  0
    0.2910   -1.1020    0.7330 N   0  0  0  0  0  0  0  0  0  0  0  0
    2.4030    3.1770   -0.4910 C   0  0  0  0  0  0  0  0  0  0  0  0
    0.5470   -0.1110   -0.2680 C   0  0  0  0  0  0  0  0  0  0  0  0
    1.5730    1.9950   -0.8930 C   0  0  0  0  0  0  0  0  0  0  0  0
   -2.3330   -0.6000    1.2150 C   0  0  0  0  0  0  0  0  0  0  0  0
    1.3190    1.0070    0.0600 C   0  0  0  0  0  0  0  0  0  0  0  0
   -0.7600   -1.8660    2.9080 O   0  0  0  0  0  0  0  0  0  0  0  0
   -0.3850    0.5920    2.5540 O   0  0  0  0  0  0  0  0  0  0  0  0
    0.0390   -0.2330   -1.5710 C   0  0  0  0  0  0  0  0  0  0  0  0
   -4.8270   -0.3790    0.0310 C   0  0  0  0  0  0  0  0  0  0  0  0
   -6.1680   -0.2250   -0.6140 C   0  0  0  0  0  0  0  0  0  0  0  0
    1.0600    1.8720   -2.1830 C   0  0  0  0  0  0  0  0  0  0  0  0
   -2.7470    0.6380    0.7270 C   0  0  0  0  0  0  0  0  0  0  0  0
   -3.1470   -1.7210    1.1360 C   0  0  0  0  0  0  0  0  0  0  0  0
   -6.5150    0.8720   -1.0470 O   0  0  0  0  0  0  0  0  0  0  0  0
    0.2940    0.7570   -2.5240 C   0  0  0  0  0  0  0  0  0  0  0  0
    3.6360    2.7830   -0.0680 F   0  0  0  0  0  0  0  0  0  0  0  0
    1.8280    3.8420    0.5490 F   0  0  0  0  0  0  0  0  0  0  0  0
    2.6080    4.1000   -1.4710 F   0  0  0  0  0  0  0  0  0  0  0  0
   -4.0030    0.7430    0.1270 C   0  0  0  0  0  0  0  0  0  0  0  0
   -4.4010   -1.6090    0.5340 C   0  0  0  0  0  0  0  0  0  0  0  0
   -0.9070   -1.5970   -2.0520 Cl  0  0  0  0  0  0  0  0  0  0  0  0
   -7.0740   -1.4230   -0.7260 C   0  0  0  0  0  0  0  0  0  0  0  0
    0.7160   -2.0160    0.6720 H   0  0  0  0  0  0  0  0  0  0  0  0
    1.7220    1.1070    1.0570 H   0  0  0  0  0  0  0  0  0  0  0  0
    1.2550    2.6390   -2.9180 H   0  0  0  0  0  0  0  0  0  0  0  0
   -2.1060    1.5030    0.8120 H   0  0  0  0  0  0  0  0  0  0  0  0
   -2.8140   -2.6680    1.5350 H   0  0  0  0  0  0  0  0  0  0  0  0
   -0.1020    0.6590   -3.5240 H   0  0  0  0  0  0  0  0  0  0  0  0
   -4.3370    1.6930   -0.2630 H   0  0  0  0  0  0  0  0  0  0  0  0
   -5.0420   -2.4750    0.4570 H   0  0  0  0  0  0  0  0  0  0  0  0
   -6.5840   -2.2910   -0.2850 H   0  0  0  0  0  0  0  0  0  0  0  0
   -7.2870   -1.6200   -1.7770 H   0  0  0  0  0  0  0  0  0  0  0  0
   -8.0060   -1.2240   -0.1970 H   0  0  0  0  0  0  0  0  0  0  0  0
  1  2  1  0  0  0  0
  1  6  1  0  0  0  0
  1  8  2  0  0  0  0
  1  9  2  0  0  0  0
  2  4  1  0  0  0  0
  2 25  1  0  0  0  0
  3  5  1  0  0  0  0
  3 18  1  0  0  0  0
  3 19  1  0  0  0  0
  3 20  1  0  0  0  0
  4  7  2  0  0  0  0
  4 10  1  0  0  0  0
  5  7  1  0  0  0  0
  5 13  2  0  0  0  0
  6 14  2  0  0  0  0
  6 15  1  0  0  0  0
  7 26  1  0  0  0  0
 10 17  2  0  0  0  0
 10 23  1  0  0  0  0
 11 12  1  0  0  0  0
 11 21  2  0  0  0  0
 11 22  1  0  0  0  0
 12 16  2  0  0  0  0
 12 24  1  0  0  0  0
 13 17  1  0  0  0  0
 13 27  1  0  0  0  0
 14 21  1  0  0  0  0
 14 28  1  0  0  0  0
 15 22  2  0  0  0  0
 15 29  1  0  0  0  0
 17 30  1  0  0  0  0
 21 31  1  0  0  0  0
 22 32  1  0  0  0  0
 24 33  1  0  0  0  0
 24 34  1  0  0  0  0
 24 35  1  0  0  0  0
M  END
>  <$CLUSTER>
719

>  <INDEX>
470406

$$$$
Specs AO-081/42097701
  MOE2020           3D

 53 55  0  0  0  0  0  0  0  0999 V2000
   -2.0560    0.0960    0.4210 S   0  0  0  0  0  0  0  0  0  0  0  0
   -0.6360   -0.8460    0.6320 N   0  0  0  0  0  0  0  0  0  0  0  0
    3.9780    1.0230   -2.1920 C   0  0  0  0  0  0  0  0  0  0  0  0
    3.8650    1.2130   -3.5510 N   0  0  0  0  0  0  0  0  0  0  0  0
   -1.7780    1.4210    1.5780 C   0  0  0  0  0  0  0  0  0  0  0  0
   -2.0840    0.6780   -0.9070 O   0  0  0  0  0  0  0  0  0  0  0  0
   -3.1960   -0.6560    0.9110 O   0  0  0  0  0  0  0  0  0  0  0  0
    0.5520   -0.4030   -0.0610 C   0  0  0  0  0  0  0  0  0  0  0  0
    2.7770    0.5190   -1.4800 C   0  0  0  0  0  0  0  0  0  0  0  0
    5.0070    1.2630   -1.5650 O   0  0  0  0  0  0  0  0  0  0  0  0
    5.0010    1.7120   -4.3320 C   0  0  0  0  0  0  0  0  0  0  0  0
    2.6570    0.9480   -4.3510 C   0  0  0  0  0  0  0  0  0  0  0  0
    2.6390    0.8220   -0.1260 C   0  0  0  0  0  0  0  0  0  0  0  0
    1.8000   -0.2350   -2.1290 C   0  0  0  0  0  0  0  0  0  0  0  0
    1.5260    0.3680    0.5830 C   0  0  0  0  0  0  0  0  0  0  0  0
    0.6850   -0.6910   -1.4240 C   0  0  0  0  0  0  0  0  0  0  0  0
   -2.2050    1.3000    2.9090 C   0  0  0  0  0  0  0  0  0  0  0  0
   -1.1650    2.6090    1.1490 C   0  0  0  0  0  0  0  0  0  0  0  0
   -2.0100    2.3540    3.8030 C   0  0  0  0  0  0  0  0  0  0  0  0
   -0.9730    3.6590    2.0480 C   0  0  0  0  0  0  0  0  0  0  0  0
   -1.3940    3.5300    3.3730 C   0  0  0  0  0  0  0  0  0  0  0  0
    4.6120    2.9990   -5.0700 C   0  0  0  0  0  0  0  0  0  0  0  0
    2.2250    2.2220   -5.0870 C   0  0  0  0  0  0  0  0  0  0  0  0
   -0.4390   -1.5450    1.9240 C   0  0  0  0  0  0  0  0  0  0  0  0
    3.3580    2.8160   -5.9320 C   0  0  0  0  0  0  0  0  0  0  0  0
   -1.1870    4.6550    4.3360 C   0  0  0  0  0  0  0  0  0  0  0  0
    2.9330    4.1370   -6.5700 C   0  0  0  0  0  0  0  0  0  0  0  0
    5.2980    0.9560   -5.0590 H   0  0  0  0  0  0  0  0  0  0  0  0
    5.8350    1.9190   -3.6620 H   0  0  0  0  0  0  0  0  0  0  0  0
    1.8520    0.6210   -3.6920 H   0  0  0  0  0  0  0  0  0  0  0  0
    2.8710    0.1650   -5.0790 H   0  0  0  0  0  0  0  0  0  0  0  0
    3.3950    1.4090    0.3750 H   0  0  0  0  0  0  0  0  0  0  0  0
    1.9060   -0.4660   -3.1790 H   0  0  0  0  0  0  0  0  0  0  0  0
    1.4160    0.6120    1.6290 H   0  0  0  0  0  0  0  0  0  0  0  0
   -0.0760   -1.2660   -1.9310 H   0  0  0  0  0  0  0  0  0  0  0  0
   -2.6850    0.3910    3.2420 H   0  0  0  0  0  0  0  0  0  0  0  0
   -0.8420    2.7100    0.1230 H   0  0  0  0  0  0  0  0  0  0  0  0
   -2.3360    2.2590    4.8280 H   0  0  0  0  0  0  0  0  0  0  0  0
   -0.4990    4.5720    1.7190 H   0  0  0  0  0  0  0  0  0  0  0  0
    5.4390    3.2980   -5.7130 H   0  0  0  0  0  0  0  0  0  0  0  0
    4.4220    3.7810   -4.3350 H   0  0  0  0  0  0  0  0  0  0  0  0
    1.9100    2.9630   -4.3520 H   0  0  0  0  0  0  0  0  0  0  0  0
    1.3880    1.9820   -5.7420 H   0  0  0  0  0  0  0  0  0  0  0  0
   -1.4080   -1.8230    2.3380 H   0  0  0  0  0  0  0  0  0  0  0  0
    0.0770   -0.8840    2.6200 H   0  0  0  0  0  0  0  0  0  0  0  0
    0.1590   -2.4420    1.7640 H   0  0  0  0  0  0  0  0  0  0  0  0
    3.5890    2.1230   -6.7400 H   0  0  0  0  0  0  0  0  0  0  0  0
   -1.5770    4.3720    5.3140 H   0  0  0  0  0  0  0  0  0  0  0  0
   -1.7120    5.5410    3.9780 H   0  0  0  0  0  0  0  0  0  0  0  0
   -0.1220    4.8720    4.4180 H   0  0  0  0  0  0  0  0  0  0  0  0
    2.6930    4.8580   -5.7880 H   0  0  0  0  0  0  0  0  0  0  0  0
    2.0550    3.9730   -7.1950 H   0  0  0  0  0  0  0  0  0  0  0  0
    3.7480    4.5230   -7.1830 H   0  0  0  0  0  0  0  0  0  0  0  0
  1  2  1  0  0  0  0
  1  5  1  0  0  0  0
  1  6  2  0  0  0  0
  1  7  2  0  0  0  0
  2  8  1  0  0  0  0
  2 24  1  0  0  0  0
  3  4  1  0  0  0  0
  3  9  1  0  0  0  0
  3 10  2  0  0  0  0
  4 11  1  0  0  0  0
  4 12  1  0  0  0  0
  5 17  2  0  0  0  0
  5 18  1  0  0  0  0
  8 15  2  0  0  0  0
  8 16  1  0  0  0  0
  9 13  2  0  0  0  0
  9 14  1  0  0  0  0
 11 22  1  0  0  0  0
 11 28  1  0  0  0  0
 11 29  1  0  0  0  0
 12 23  1  0  0  0  0
 12 30  1  0  0  0  0
 12 31  1  0  0  0  0
 13 15  1  0  0  0  0
 13 32  1  0  0  0  0
 14 16  2  0  0  0  0
 14 33  1  0  0  0  0
 15 34  1  0  0  0  0
 16 35  1  0  0  0  0
 17 19  1  0  0  0  0
 17 36  1  0  0  0  0
 18 20  2  0  0  0  0
 18 37  1  0  0  0  0
 19 21  2  0  0  0  0
 19 38  1  0  0  0  0
 20 21  1  0  0  0  0
 20 39  1  0  0  0  0
 21 26  1  0  0  0  0
 22 25  1  0  0  0  0
 22 40  1  0  0  0  0
 22 41  1  0  0  0  0
 23 25  1  0  0  0  0
 23 42  1  0  0  0  0
 23 43  1  0  0  0  0
 24 44  1  0  0  0  0
 24 45  1  0  0  0  0
 24 46  1  0  0  0  0
 25 27  1  0  0  0  0
 25 47  1  0  0  0  0
 26 48  1  0  0  0  0
 26 49  1  0  0  0  0
 26 50  1  0  0  0  0
 27 51  1  0  0  0  0
 27 52  1  0  0  0  0
 27 53  1  0  0  0  0
M  END
>  <$CLUSTER>
720

>  <INDEX>
530278

$$$$
Tripos 1557-00088
  MOE2020           3D

 37 38  0  0  0  0  0  0  0  0999 V2000
   -1.7270   -0.1590    0.3230 S   0  0  0  0  0  0  0  0  0  0  0  0
    0.0040   -0.0300   -0.0060 C   0  0  0  0  0  0  0  0  0  0  0  0
    0.4420    0.2930   -1.2940 C   0  0  0  0  0  0  0  0  0  0  0  0
    1.8110    0.3660   -1.5580 C   0  0  0  0  0  0  0  0  0  0  0  0
   -2.4130   -0.4580   -0.9230 O   0  0  0  0  0  0  0  0  0  0  0  0
   -1.9210   -1.0130    1.4810 O   0  0  0  0  0  0  0  0  0  0  0  0
   -2.1450    1.4000    0.7670 N   0  0  0  0  0  0  0  0  0  0  0  0
    2.7330    0.1110   -0.5420 C   0  0  0  0  0  0  0  0  0  0  0  0
    0.9250   -0.2930    1.0120 C   0  0  0  0  0  0  0  0  0  0  0  0
    2.2920   -0.2180    0.7410 C   0  0  0  0  0  0  0  0  0  0  0  0
    2.3700    0.7650   -3.1160 Cl  0  0  0  0  0  0  0  0  0  0  0  0
    4.0210    0.2030   -0.8810 F   0  0  0  0  0  0  0  0  0  0  0  0
   -0.2990    4.6780    3.4480 C   0  0  0  0  0  0  0  0  0  0  0  0
    0.2170    5.2280    4.6210 C   0  0  0  0  0  0  0  0  0  0  0  0
   -1.6030    1.9540    2.0030 C   0  0  0  0  0  0  0  0  0  0  0  0
   -1.5240    4.0040    3.4650 C   0  0  0  0  0  0  0  0  0  0  0  0
    1.4300    5.8690    4.4670 O   0  0  0  0  0  0  0  0  0  0  0  0
   -1.7050    4.4310    5.8420 C   0  0  0  0  0  0  0  0  0  0  0  0
   -2.0850    3.3950    2.1850 C   0  0  0  0  0  0  0  0  0  0  0  0
   -0.4870    5.1050    5.8170 C   0  0  0  0  0  0  0  0  0  0  0  0
   -2.2220    3.8800    4.6690 C   0  0  0  0  0  0  0  0  0  0  0  0
    2.0030    6.4480    5.6330 C   0  0  0  0  0  0  0  0  0  0  0  0
   -0.2740    0.4850   -2.0790 H   0  0  0  0  0  0  0  0  0  0  0  0
   -3.1510    1.4250    0.8480 H   0  0  0  0  0  0  0  0  0  0  0  0
    0.5810   -0.5530    2.0020 H   0  0  0  0  0  0  0  0  0  0  0  0
    3.0090   -0.4150    1.5240 H   0  0  0  0  0  0  0  0  0  0  0  0
    0.2500    4.7730    2.5230 H   0  0  0  0  0  0  0  0  0  0  0  0
   -0.5140    1.9400    1.9580 H   0  0  0  0  0  0  0  0  0  0  0  0
   -1.9390    1.3510    2.8470 H   0  0  0  0  0  0  0  0  0  0  0  0
   -2.2500    4.3350    6.7700 H   0  0  0  0  0  0  0  0  0  0  0  0
   -3.1740    3.4030    2.2350 H   0  0  0  0  0  0  0  0  0  0  0  0
   -1.7560    3.9910    1.3330 H   0  0  0  0  0  0  0  0  0  0  0  0
   -0.0880    5.5330    6.7250 H   0  0  0  0  0  0  0  0  0  0  0  0
   -3.1660    3.3550    4.6920 H   0  0  0  0  0  0  0  0  0  0  0  0
    2.9520    6.9190    5.3760 H   0  0  0  0  0  0  0  0  0  0  0  0
    2.1730    5.6710    6.3780 H   0  0  0  0  0  0  0  0  0  0  0  0
    1.3230    7.1980    6.0380 H   0  0  0  0  0  0  0  0  0  0  0  0
  1  2  1  0  0  0  0
  1  5  2  0  0  0  0
  1  6  2  0  0  0  0
  1  7  1  0  0  0  0
  2  3  1  0  0  0  0
  2  9  2  0  0  0  0
  3  4  2  0  0  0  0
  3 23  1  0  0  0  0
  4  8  1  0  0  0  0
  4 11  1  0  0  0  0
  7 15  1  0  0  0  0
  7 24  1  0  0  0  0
  8 10  2  0  0  0  0
  8 12  1  0  0  0  0
  9 10  1  0  0  0  0
  9 25  1  0  0  0  0
 10 26  1  0  0  0  0
 13 14  2  0  0  0  0
 13 16  1  0  0  0  0
 13 27  1  0  0  0  0
 14 17  1  0  0  0  0
 14 20  1  0  0  0  0
 15 19  1  0  0  0  0
 15 28  1  0  0  0  0
 15 29  1  0  0  0  0
 16 19  1  0  0  0  0
 16 21  2  0  0  0  0
 17 22  1  0  0  0  0
 18 20  2  0  0  0  0
 18 21  1  0  0  0  0
 18 30  1  0  0  0  0
 19 31  1  0  0  0  0
 19 32  1  0  0  0  0
 20 33  1  0  0  0  0
 21 34  1  0  0  0  0
 22 35  1  0  0  0  0
 22 36  1  0  0  0  0
 22 37  1  0  0  0  0
M  END
>  <$CLUSTER>
721

>  <INDEX>
468587

$$$$
Princeton Biomolecular OSSK_115610
  MOE2020           3D

 40 41  0  0  1  0  0  0  0  0999 V2000
    0.5050    2.0520   -0.7350 S   0  0  0  0  0  0  0  0  0  0  0  0
    0.6050    0.4240   -1.2640 N   0  0  0  0  0  0  0  0  0  0  0  0
    1.6930    2.0340    0.5890 C   0  0  0  0  0  0  0  0  0  0  0  0
    1.0520    2.8960   -1.7810 O   0  0  0  0  0  0  0  0  0  0  0  0
   -0.7960    2.3370   -0.1630 O   0  0  0  0  0  0  0  0  0  0  0  0
    3.5180    2.0990    2.7120 C   0  0  0  0  0  0  0  0  0  0  0  0
    1.2650    1.7540    1.9030 C   0  0  0  0  0  0  0  0  0  0  0  0
    3.0340    2.3720    0.3590 C   0  0  0  0  0  0  0  0  0  0  0  0
    3.9440    2.3950    1.4160 C   0  0  0  0  0  0  0  0  0  0  0  0
    2.1810    1.7790    2.9560 C   0  0  0  0  0  0  0  0  0  0  0  0
    0.0220   -0.5940   -0.4320 C   0  0  0  0  0  0  0  0  0  0  0  0
   -1.0630   -2.5590    1.2270 C   0  0  0  0  0  0  0  0  0  0  0  0
    4.5030    2.1290    3.8940 C   0  0  3  0  0  0  0  0  0  0  0  0
   -1.3610   -0.6700   -0.2530 C   0  0  0  0  0  0  0  0  0  0  0  0
    0.8630   -1.5010    0.2200 C   0  0  0  0  0  0  0  0  0  0  0  0
   -1.9010   -1.6540    0.5760 C   0  0  0  0  0  0  0  0  0  0  0  0
    0.3180   -2.4830    1.0480 C   0  0  0  0  0  0  0  0  0  0  0  0
   -1.6080   -3.5090    2.0320 O   0  0  0  0  0  0  0  0  0  0  0  0
    5.0940    3.5270    4.1040 C   0  0  0  0  0  0  0  0  0  0  0  0
    5.6140    1.0880    3.7250 C   0  0  0  0  0  0  0  0  0  0  0  0
    4.0800    4.6030    4.4420 C   0  0  0  0  0  0  0  0  0  0  0  0
    1.0600    0.1870   -2.1340 H   0  0  0  0  0  0  0  0  0  0  0  0
    0.2280    1.5200    2.0950 H   0  0  0  0  0  0  0  0  0  0  0  0
    3.3640    2.6150   -0.6400 H   0  0  0  0  0  0  0  0  0  0  0  0
    4.9790    2.6420    1.2320 H   0  0  0  0  0  0  0  0  0  0  0  0
    1.8550    1.5510    3.9600 H   0  0  0  0  0  0  0  0  0  0  0  0
    3.9350    1.8720    4.7880 H   0  0  0  0  0  0  0  0  0  0  0  0
   -2.0110    0.0310   -0.7550 H   0  0  0  0  0  0  0  0  0  0  0  0
    1.9330   -1.4420    0.0830 H   0  0  0  0  0  0  0  0  0  0  0  0
   -2.9700   -1.7150    0.7140 H   0  0  0  0  0  0  0  0  0  0  0  0
    0.9660   -3.1850    1.5510 H   0  0  0  0  0  0  0  0  0  0  0  0
   -0.9760   -4.0990    2.4490 H   0  0  0  0  0  0  0  0  0  0  0  0
    5.6060    3.8200    3.1870 H   0  0  0  0  0  0  0  0  0  0  0  0
    5.8140    3.4710    4.9200 H   0  0  0  0  0  0  0  0  0  0  0  0
    6.1990    1.3220    2.8360 H   0  0  0  0  0  0  0  0  0  0  0  0
    5.1710    0.0980    3.6180 H   0  0  0  0  0  0  0  0  0  0  0  0
    6.2630    1.1030    4.6010 H   0  0  0  0  0  0  0  0  0  0  0  0
    3.3480    4.6770    3.6380 H   0  0  0  0  0  0  0  0  0  0  0  0
    4.5900    5.5590    4.5580 H   0  0  0  0  0  0  0  0  0  0  0  0
    3.5740    4.3460    5.3720 H   0  0  0  0  0  0  0  0  0  0  0  0
  1  2  1  0  0  0  0
  1  3  1  0  0  0  0
  1  4  2  0  0  0  0
  1  5  2  0  0  0  0
  2 11  1  0  0  0  0
  2 22  1  0  0  0  0
  3  7  1  0  0  0  0
  3  8  2  0  0  0  0
  6  9  2  0  0  0  0
  6 10  1  0  0  0  0
  6 13  1  0  0  0  0
  7 10  2  0  0  0  0
  7 23  1  0  0  0  0
  8  9  1  0  0  0  0
  8 24  1  0  0  0  0
  9 25  1  0  0  0  0
 10 26  1  0  0  0  0
 11 14  2  0  0  0  0
 11 15  1  0  0  0  0
 12 16  2  0  0  0  0
 12 17  1  0  0  0  0
 12 18  1  0  0  0  0
 13 19  1  0  0  0  0
 13 20  1  0  0  0  0
 13 27  1  0  0  0  0
 14 16  1  0  0  0  0
 14 28  1  0  0  0  0
 15 17  2  0  0  0  0
 15 29  1  0  0  0  0
 16 30  1  0  0  0  0
 17 31  1  0  0  0  0
 18 32  1  0  0  0  0
 19 21  1  0  0  0  0
 19 33  1  0  0  0  0
 19 34  1  0  0  0  0
 20 35  1  0  0  0  0
 20 36  1  0  0  0  0
 20 37  1  0  0  0  0
 21 38  1  0  0  0  0
 21 39  1  0  0  0  0
 21 40  1  0  0  0  0
M  END
>  <$CLUSTER>
722

>  <INDEX>
577938

$$$$
Tripos 1557-13590
  MOE2020           3D

 45 47  0  0  0  0  0  0  0  0999 V2000
    0.8590    1.9170   -0.5700 S   0  0  0  0  0  0  0  0  0  0  0  0
    0.3520    0.4420   -1.2820 N   0  0  0  0  0  0  0  0  0  0  0  0
   -0.7100    2.5850   -0.0630 C   0  0  0  0  0  0  0  0  0  0  0  0
    1.3590    2.7750   -1.6280 O   0  0  0  0  0  0  0  0  0  0  0  0
    1.6480    1.6790    0.6210 O   0  0  0  0  0  0  0  0  0  0  0  0
   -3.1280    3.7130    0.7890 C   0  0  0  0  0  0  0  0  0  0  0  0
   -4.4190    4.3290    1.2090 C   0  0  0  0  0  0  0  0  0  0  0  0
   -1.4570    3.3980   -0.9310 C   0  0  0  0  0  0  0  0  0  0  0  0
   -1.1730    2.3640    1.2480 C   0  0  0  0  0  0  0  0  0  0  0  0
   -5.0510    5.0240    0.4150 O   0  0  0  0  0  0  0  0  0  0  0  0
   -2.6670    3.9520   -0.5060 C   0  0  0  0  0  0  0  0  0  0  0  0
   -2.3830    2.9200    1.6650 C   0  0  0  0  0  0  0  0  0  0  0  0
   -0.0880   -0.6140   -0.4100 C   0  0  0  0  0  0  0  0  0  0  0  0
   -0.9920   -2.6270    1.2970 C   0  0  0  0  0  0  0  0  0  0  0  0
   -1.4810   -3.7370    2.2170 C   0  0  0  0  0  0  0  0  0  0  0  0
   -1.4380   -0.9750   -0.4100 C   0  0  0  0  0  0  0  0  0  0  0  0
    0.8100   -1.2600    0.4440 C   0  0  0  0  0  0  0  0  0  0  0  0
    0.3550   -2.2670    1.2960 C   0  0  0  0  0  0  0  0  0  0  0  0
   -1.8880   -1.9830    0.4450 C   0  0  0  0  0  0  0  0  0  0  0  0
   -1.4010   -5.1010    1.5480 C   0  0  0  0  0  0  0  0  0  0  0  0
   -4.9320    4.0860    2.6040 C   0  0  0  0  0  0  0  0  0  0  0  0
   -0.2360   -5.8690    1.6490 C   0  0  0  0  0  0  0  0  0  0  0  0
   -2.4780   -5.5840    0.7990 C   0  0  0  0  0  0  0  0  0  0  0  0
   -2.3970   -6.8280    0.1720 C   0  0  0  0  0  0  0  0  0  0  0  0
   -0.1570   -7.1120    1.0200 C   0  0  0  0  0  0  0  0  0  0  0  0
   -1.2380   -7.5910    0.2840 C   0  0  0  0  0  0  0  0  0  0  0  0
    0.3620    0.3180   -2.2840 H   0  0  0  0  0  0  0  0  0  0  0  0
   -1.0950    3.5950   -1.9290 H   0  0  0  0  0  0  0  0  0  0  0  0
   -0.5910    1.7640    1.9320 H   0  0  0  0  0  0  0  0  0  0  0  0
   -3.2460    4.5660   -1.1800 H   0  0  0  0  0  0  0  0  0  0  0  0
   -2.7440    2.7370    2.6660 H   0  0  0  0  0  0  0  0  0  0  0  0
   -2.5170   -3.5380    2.4900 H   0  0  0  0  0  0  0  0  0  0  0  0
   -0.8640   -3.7480    3.1160 H   0  0  0  0  0  0  0  0  0  0  0  0
   -2.1320   -0.4750   -1.0700 H   0  0  0  0  0  0  0  0  0  0  0  0
    1.8530   -0.9810    0.4450 H   0  0  0  0  0  0  0  0  0  0  0  0
    1.0470   -2.7680    1.9560 H   0  0  0  0  0  0  0  0  0  0  0  0
   -2.9310   -2.2640    0.4460 H   0  0  0  0  0  0  0  0  0  0  0  0
   -4.2300    3.4500    3.1430 H   0  0  0  0  0  0  0  0  0  0  0  0
   -5.9030    3.5940    2.5530 H   0  0  0  0  0  0  0  0  0  0  0  0
   -5.0330    5.0380    3.1250 H   0  0  0  0  0  0  0  0  0  0  0  0
    0.6050   -5.4980    2.2160 H   0  0  0  0  0  0  0  0  0  0  0  0
   -3.3760   -4.9920    0.7050 H   0  0  0  0  0  0  0  0  0  0  0  0
   -3.2340   -7.1990   -0.4010 H   0  0  0  0  0  0  0  0  0  0  0  0
    0.7430   -7.7030    1.1040 H   0  0  0  0  0  0  0  0  0  0  0  0
   -1.1770   -8.5550   -0.2000 H   0  0  0  0  0  0  0  0  0  0  0  0
  1  2  1  0  0  0  0
  1  3  1  0  0  0  0
  1  4  2  0  0  0  0
  1  5  2  0  0  0  0
  2 13  1  0  0  0  0
  2 27  1  0  0  0  0
  3  8  2  0  0  0  0
  3  9  1  0  0  0  0
  6  7  1  0  0  0  0
  6 11  2  0  0  0  0
  6 12  1  0  0  0  0
  7 10  2  0  0  0  0
  7 21  1  0  0  0  0
  8 11  1  0  0  0  0
  8 28  1  0  0  0  0
  9 12  2  0  0  0  0
  9 29  1  0  0  0  0
 11 30  1  0  0  0  0
 12 31  1  0  0  0  0
 13 16  1  0  0  0  0
 13 17  2  0  0  0  0
 14 15  1  0  0  0  0
 14 18  2  0  0  0  0
 14 19  1  0  0  0  0
 15 20  1  0  0  0  0
 15 32  1  0  0  0  0
 15 33  1  0  0  0  0
 16 19  2  0  0  0  0
 16 34  1  0  0  0  0
 17 18  1  0  0  0  0
 17 35  1  0  0  0  0
 18 36  1  0  0  0  0
 19 37  1  0  0  0  0
 20 22  1  0  0  0  0
 20 23  2  0  0  0  0
 21 38  1  0  0  0  0
 21 39  1  0  0  0  0
 21 40  1  0  0  0  0
 22 25  2  0  0  0  0
 22 41  1  0  0  0  0
 23 24  1  0  0  0  0
 23 42  1  0  0  0  0
 24 26  2  0  0  0  0
 24 43  1  0  0  0  0
 25 26  1  0  0  0  0
 25 44  1  0  0  0  0
 26 45  1  0  0  0  0
M  END
>  <$CLUSTER>
723

>  <INDEX>
472375

$$$$
Tripos 1559-05640
  MOE2020           3D

 41 43  0  0  0  0  0  0  0  0999 V2000
   -1.7270   -0.1590    0.3230 S   0  0  0  0  0  0  0  0  0  0  0  0
   -2.1450    1.4000    0.7670 N   0  0  0  0  0  0  0  0  0  0  0  0
    0.0040   -0.0300   -0.0060 C   0  0  0  0  0  0  0  0  0  0  0  0
   -2.2090    4.2910    1.4470 N   0  0  0  0  0  0  0  0  0  0  0  0
    2.6990    0.9680   -3.9140 N   0  0  0  0  0  0  0  0  0  0  0  0
   -1.6870    5.5030    1.6430 C   0  0  0  0  0  0  0  0  0  0  0  0
   -2.4130   -0.4580   -0.9230 O   0  0  0  0  0  0  0  0  0  0  0  0
   -1.9210   -1.0130    1.4810 O   0  0  0  0  0  0  0  0  0  0  0  0
   -1.6360    1.9140    2.0670 C   0  0  0  0  0  0  0  0  0  0  0  0
   -2.1190    2.4550   -0.2810 C   0  0  0  0  0  0  0  0  0  0  0  0
    2.3240    0.6950   -2.8470 C   0  0  0  0  0  0  0  0  0  0  0  0
   -2.2980    3.2480    2.4790 C   0  0  0  0  0  0  0  0  0  0  0  0
   -2.7680    3.7750    0.1890 C   0  0  0  0  0  0  0  0  0  0  0  0
    0.4420    0.2930   -1.2940 C   0  0  0  0  0  0  0  0  0  0  0  0
   -1.9410    6.6210    0.8190 C   0  0  0  0  0  0  0  0  0  0  0  0
    1.8110    0.3660   -1.5580 C   0  0  0  0  0  0  0  0  0  0  0  0
   -2.8130    6.5260   -0.2360 O   0  0  0  0  0  0  0  0  0  0  0  0
    0.9250   -0.2930    1.0120 C   0  0  0  0  0  0  0  0  0  0  0  0
    2.2920   -0.2180    0.7410 C   0  0  0  0  0  0  0  0  0  0  0  0
   -0.8130    5.7390    2.7300 C   0  0  0  0  0  0  0  0  0  0  0  0
   -1.3560    7.8760    1.0560 C   0  0  0  0  0  0  0  0  0  0  0  0
    2.7330    0.1110   -0.5420 C   0  0  0  0  0  0  0  0  0  0  0  0
   -0.2280    6.9880    2.9730 C   0  0  0  0  0  0  0  0  0  0  0  0
   -0.4970    8.0580    2.1330 C   0  0  0  0  0  0  0  0  0  0  0  0
   -0.5600    2.0690    1.9840 H   0  0  0  0  0  0  0  0  0  0  0  0
   -1.8370    1.1710    2.8390 H   0  0  0  0  0  0  0  0  0  0  0  0
   -2.6600    2.0920   -1.1550 H   0  0  0  0  0  0  0  0  0  0  0  0
   -1.0820    2.6530   -0.5520 H   0  0  0  0  0  0  0  0  0  0  0  0
   -3.3510    3.0600    2.6890 H   0  0  0  0  0  0  0  0  0  0  0  0
   -1.8070    3.6130    3.3810 H   0  0  0  0  0  0  0  0  0  0  0  0
   -2.6210    4.5260   -0.5870 H   0  0  0  0  0  0  0  0  0  0  0  0
   -3.8350    3.6030    0.3310 H   0  0  0  0  0  0  0  0  0  0  0  0
   -0.2740    0.4850   -2.0790 H   0  0  0  0  0  0  0  0  0  0  0  0
   -2.9470    7.3410   -0.7260 H   0  0  0  0  0  0  0  0  0  0  0  0
    0.5810   -0.5530    2.0020 H   0  0  0  0  0  0  0  0  0  0  0  0
    3.0090   -0.4150    1.5240 H   0  0  0  0  0  0  0  0  0  0  0  0
   -0.5880    4.9220    3.4000 H   0  0  0  0  0  0  0  0  0  0  0  0
   -1.5750    8.7040    0.3980 H   0  0  0  0  0  0  0  0  0  0  0  0
    3.7910    0.1680   -0.7490 H   0  0  0  0  0  0  0  0  0  0  0  0
    0.4340    7.1180    3.8160 H   0  0  0  0  0  0  0  0  0  0  0  0
   -0.0440    9.0220    2.3140 H   0  0  0  0  0  0  0  0  0  0  0  0
  1  2  1  0  0  0  0
  1  3  1  0  0  0  0
  1  7  2  0  0  0  0
  1  8  2  0  0  0  0
  2  9  1  0  0  0  0
  2 10  1  0  0  0  0
  3 14  2  0  0  0  0
  3 18  1  0  0  0  0
  4  6  1  0  0  0  0
  4 12  1  0  0  0  0
  4 13  1  0  0  0  0
  5 11  3  0  0  0  0
  6 15  2  0  0  0  0
  6 20  1  0  0  0  0
  9 12  1  0  0  0  0
  9 25  1  0  0  0  0
  9 26  1  0  0  0  0
 10 13  1  0  0  0  0
 10 27  1  0  0  0  0
 10 28  1  0  0  0  0
 11 16  1  0  0  0  0
 12 29  1  0  0  0  0
 12 30  1  0  0  0  0
 13 31  1  0  0  0  0
 13 32  1  0  0  0  0
 14 16  1  0  0  0  0
 14 33  1  0  0  0  0
 15 17  1  0  0  0  0
 15 21  1  0  0  0  0
 16 22  2  0  0  0  0
 17 34  1  0  0  0  0
 18 19  2  0  0  0  0
 18 35  1  0  0  0  0
 19 22  1  0  0  0  0
 19 36  1  0  0  0  0
 20 23  2  0  0  0  0
 20 37  1  0  0  0  0
 21 24  2  0  0  0  0
 21 38  1  0  0  0  0
 22 39  1  0  0  0  0
 23 24  1  0  0  0  0
 23 40  1  0  0  0  0
 24 41  1  0  0  0  0
M  END
>  <$CLUSTER>
724

>  <INDEX>
474133

$$$$
Tripos 1559-05871
  MOE2020           3D

 34 35  0  0  1  0  0  0  0  0999 V2000
    1.7470    0.0250   -0.2700 S   0  0  0  0  0  0  0  0  0  0  0  0
    0.0430   -0.1500    0.1250 C   0  0  0  0  0  0  0  0  0  0  0  0
    2.5180   -1.1410    0.6390 N   0  0  0  0  0  0  0  0  0  0  0  0
   -0.9040    0.6860   -0.4710 C   0  0  0  0  0  0  0  0  0  0  0  0
   -0.3700   -1.1300    1.0390 C   0  0  0  0  0  0  0  0  0  0  0  0
   -2.2600    0.5370   -0.1480 C   0  0  0  0  0  0  0  0  0  0  0  0
    1.9280   -0.3500   -1.6610 O   0  0  0  0  0  0  0  0  0  0  0  0
    2.1970    1.3080    0.2370 O   0  0  0  0  0  0  0  0  0  0  0  0
   -2.6660   -0.4390    0.7620 C   0  0  0  0  0  0  0  0  0  0  0  0
   -1.7210   -1.2710    1.3550 C   0  0  0  0  0  0  0  0  0  0  0  0
    2.2690   -2.6320    0.3710 C   0  0  1  0  0  0  0  0  0  0  0  0
   -0.5120    1.9250   -1.6090 Cl  0  0  0  0  0  0  0  0  0  0  0  0
    2.5650   -0.9990    2.1580 C   0  0  0  0  0  0  0  0  0  0  0  0
   -4.3190   -0.6000    1.1360 Cl  0  0  0  0  0  0  0  0  0  0  0  0
    3.5430   -3.2190   -0.2400 C   0  0  0  0  0  0  0  0  0  0  0  0
    3.6820   -2.8010   -1.5930 O   0  0  0  0  0  0  0  0  0  0  0  0
    2.7430   -2.4050    2.7090 C   0  0  0  0  0  0  0  0  0  0  0  0
    1.9430   -3.2480    1.7340 C   0  0  0  0  0  0  0  0  0  0  0  0
   -2.1500   -2.3170    2.3320 C   0  0  0  0  0  0  0  0  0  0  0  0
    0.3610   -1.7780    1.5000 H   0  0  0  0  0  0  0  0  0  0  0  0
   -2.9950    1.1820   -0.6070 H   0  0  0  0  0  0  0  0  0  0  0  0
    1.4520   -2.8250   -0.3240 H   0  0  0  0  0  0  0  0  0  0  0  0
    3.4040   -0.3680    2.4530 H   0  0  0  0  0  0  0  0  0  0  0  0
    1.6360   -0.5640    2.5260 H   0  0  0  0  0  0  0  0  0  0  0  0
    3.4900   -4.3070   -0.2040 H   0  0  0  0  0  0  0  0  0  0  0  0
    4.4060   -2.8780    0.3320 H   0  0  0  0  0  0  0  0  0  0  0  0
    2.9120   -3.1130   -2.0740 H   0  0  0  0  0  0  0  0  0  0  0  0
    3.7930   -2.6960    2.7110 H   0  0  0  0  0  0  0  0  0  0  0  0
    2.3420   -2.4850    3.7190 H   0  0  0  0  0  0  0  0  0  0  0  0
    0.8760   -3.1800    1.9460 H   0  0  0  0  0  0  0  0  0  0  0  0
    2.2560   -4.2910    1.7740 H   0  0  0  0  0  0  0  0  0  0  0  0
   -1.2760   -2.8640    2.6860 H   0  0  0  0  0  0  0  0  0  0  0  0
   -2.8390   -3.0080    1.8460 H   0  0  0  0  0  0  0  0  0  0  0  0
   -2.6480   -1.8420    3.1770 H   0  0  0  0  0  0  0  0  0  0  0  0
  1  2  1  0  0  0  0
  1  3  1  0  0  0  0
  1  7  2  0  0  0  0
  1  8  2  0  0  0  0
  2  4  1  0  0  0  0
  2  5  2  0  0  0  0
  3 11  1  0  0  0  0
  3 13  1  0  0  0  0
  4  6  2  0  0  0  0
  4 12  1  0  0  0  0
  5 10  1  0  0  0  0
  5 20  1  0  0  0  0
  6  9  1  0  0  0  0
  6 21  1  0  0  0  0
  9 10  2  0  0  0  0
  9 14  1  0  0  0  0
 10 19  1  0  0  0  0
 11 15  1  0  0  0  0
 11 18  1  0  0  0  0
 11 22  1  0  0  0  0
 13 17  1  0  0  0  0
 13 23  1  0  0  0  0
 13 24  1  0  0  0  0
 15 16  1  0  0  0  0
 15 25  1  0  0  0  0
 15 26  1  0  0  0  0
 16 27  1  0  0  0  0
 17 18  1  0  0  0  0
 17 28  1  0  0  0  0
 17 29  1  0  0  0  0
 18 30  1  0  0  0  0
 18 31  1  0  0  0  0
 19 32  1  0  0  0  0
 19 33  1  0  0  0  0
 19 34  1  0  0  0  0
M  END
>  <$CLUSTER>
725

>  <INDEX>
474190

$$$$
Chem T&I IVK/0000448
  MOE2020           3D

 50 52  0  0  0  0  0  0  0  0999 V2000
    2.1880    0.0380   -1.5830 S   0  0  0  0  0  0  0  0  0  0  0  0
    0.9490   -0.0300   -0.4530 N   0  0  0  0  0  0  0  0  0  0  0  0
   -1.6750    0.0220    0.9530 N   0  0  0  0  0  0  0  0  0  0  0  0
    3.2190   -0.4060    0.0150 C   0  0  0  0  0  0  0  0  0  0  0  0
    2.3420   -1.1150   -2.3780 O   0  0  0  0  0  0  0  0  0  0  0  0
    2.6500    1.3320   -1.8950 O   0  0  0  0  0  0  0  0  0  0  0  0
   -0.0470   -1.1260   -0.5730 C   0  0  0  0  0  0  0  0  0  0  0  0
    0.2490    1.2350   -0.1070 C   0  0  0  0  0  0  0  0  0  0  0  0
   -2.9890    0.1650    1.0660 C   0  0  0  0  0  0  0  0  0  0  0  0
   -0.6850    1.0970    1.1110 C   0  0  0  0  0  0  0  0  0  0  0  0
   -0.9780   -1.2360    0.6500 C   0  0  0  0  0  0  0  0  0  0  0  0
   -5.8130    0.4720    1.3090 C   0  0  0  0  0  0  0  0  0  0  0  0
   -7.2710    0.6680    1.4430 C   0  0  0  0  0  0  0  0  0  0  0  0
   -7.7170    1.7830    1.7020 O   0  0  0  0  0  0  0  0  0  0  0  0
   -3.5850    1.4100    1.3600 C   0  0  0  0  0  0  0  0  0  0  0  0
   -3.8770   -0.9170    0.9000 C   0  0  0  0  0  0  0  0  0  0  0  0
   -5.2650   -0.7690    1.0190 C   0  0  0  0  0  0  0  0  0  0  0  0
   -4.9720    1.5640    1.4800 C   0  0  0  0  0  0  0  0  0  0  0  0
    3.9670    0.6170    0.6850 C   0  0  0  0  0  0  0  0  0  0  0  0
    3.7150   -1.7460    0.1890 C   0  0  0  0  0  0  0  0  0  0  0  0
    4.6070   -2.0540    1.2170 C   0  0  0  0  0  0  0  0  0  0  0  0
    4.8590    0.3020    1.7120 C   0  0  0  0  0  0  0  0  0  0  0  0
    5.1770   -1.0310    1.9770 C   0  0  0  0  0  0  0  0  0  0  0  0
   -8.1910   -0.5100    1.2600 C   0  0  0  0  0  0  0  0  0  0  0  0
    6.2080   -1.3650    3.0360 C   0  0  0  0  0  0  0  0  0  0  0  0
    5.5390   -1.5770    4.3850 C   0  0  0  0  0  0  0  0  0  0  0  0
    0.4880   -2.0690   -0.6880 H   0  0  0  0  0  0  0  0  0  0  0  0
   -0.6570   -0.9440   -1.4580 H   0  0  0  0  0  0  0  0  0  0  0  0
   -0.3450    1.5490   -0.9660 H   0  0  0  0  0  0  0  0  0  0  0  0
    0.9970    1.9960    0.1140 H   0  0  0  0  0  0  0  0  0  0  0  0
   -0.0790    0.8850    1.9920 H   0  0  0  0  0  0  0  0  0  0  0  0
   -1.2140    2.0390    1.2520 H   0  0  0  0  0  0  0  0  0  0  0  0
   -1.7220   -2.0070    0.4520 H   0  0  0  0  0  0  0  0  0  0  0  0
   -0.3810   -1.5210    1.5170 H   0  0  0  0  0  0  0  0  0  0  0  0
   -2.9500    2.2730    1.4970 H   0  0  0  0  0  0  0  0  0  0  0  0
   -3.4740   -1.8930    0.6730 H   0  0  0  0  0  0  0  0  0  0  0  0
   -5.9110   -1.6240    0.8840 H   0  0  0  0  0  0  0  0  0  0  0  0
   -5.3890    2.5340    1.7060 H   0  0  0  0  0  0  0  0  0  0  0  0
    3.8390    1.6480    0.3910 H   0  0  0  0  0  0  0  0  0  0  0  0
    3.3920   -2.5250   -0.4860 H   0  0  0  0  0  0  0  0  0  0  0  0
    4.8560   -3.0840    1.4250 H   0  0  0  0  0  0  0  0  0  0  0  0
    5.3030    1.0900    2.3020 H   0  0  0  0  0  0  0  0  0  0  0  0
   -7.6020   -1.4000    1.0380 H   0  0  0  0  0  0  0  0  0  0  0  0
   -8.8750   -0.3120    0.4350 H   0  0  0  0  0  0  0  0  0  0  0  0
   -8.7620   -0.6710    2.1750 H   0  0  0  0  0  0  0  0  0  0  0  0
    6.9200   -0.5440    3.1140 H   0  0  0  0  0  0  0  0  0  0  0  0
    6.7340   -2.2760    2.7500 H   0  0  0  0  0  0  0  0  0  0  0  0
    5.0120   -0.6680    4.6760 H   0  0  0  0  0  0  0  0  0  0  0  0
    6.2960   -1.8130    5.1330 H   0  0  0  0  0  0  0  0  0  0  0  0
    4.8300   -2.4020    4.3130 H   0  0  0  0  0  0  0  0  0  0  0  0
  1  2  1  0  0  0  0
  1  4  1  0  0  0  0
  1  5  2  0  0  0  0
  1  6  2  0  0  0  0
  2  7  1  0  0  0  0
  2  8  1  0  0  0  0
  3  9  1  0  0  0  0
  3 10  1  0  0  0  0
  3 11  1  0  0  0  0
  4 19  1  0  0  0  0
  4 20  2  0  0  0  0
  7 11  1  0  0  0  0
  7 27  1  0  0  0  0
  7 28  1  0  0  0  0
  8 10  1  0  0  0  0
  8 29  1  0  0  0  0
  8 30  1  0  0  0  0
  9 15  1  0  0  0  0
  9 16  2  0  0  0  0
 10 31  1  0  0  0  0
 10 32  1  0  0  0  0
 11 33  1  0  0  0  0
 11 34  1  0  0  0  0
 12 13  1  0  0  0  0
 12 17  2  0  0  0  0
 12 18  1  0  0  0  0
 13 14  2  0  0  0  0
 13 24  1  0  0  0  0
 15 18  2  0  0  0  0
 15 35  1  0  0  0  0
 16 17  1  0  0  0  0
 16 36  1  0  0  0  0
 17 37  1  0  0  0  0
 18 38  1  0  0  0  0
 19 22  2  0  0  0  0
 19 39  1  0  0  0  0
 20 21  1  0  0  0  0
 20 40  1  0  0  0  0
 21 23  2  0  0  0  0
 21 41  1  0  0  0  0
 22 23  1  0  0  0  0
 22 42  1  0  0  0  0
 23 25  1  0  0  0  0
 24 43  1  0  0  0  0
 24 44  1  0  0  0  0
 24 45  1  0  0  0  0
 25 26  1  0  0  0  0
 25 46  1  0  0  0  0
 25 47  1  0  0  0  0
 26 48  1  0  0  0  0
 26 49  1  0  0  0  0
 26 50  1  0  0  0  0
M  END
>  <$CLUSTER>
726

>  <INDEX>
553125

$$$$
Chem T&I IVK/0000805
  MOE2020           3D

 52 54  0  0  0  0  0  0  0  0999 V2000
   -1.7270   -0.1590    0.3230 S   0  0  0  0  0  0  0  0  0  0  0  0
   -2.1450    1.4000    0.7670 N   0  0  0  0  0  0  0  0  0  0  0  0
    0.0040   -0.0300   -0.0060 C   0  0  0  0  0  0  0  0  0  0  0  0
   -2.2460    4.2800    1.4510 N   0  3  0  0  0  0  0  0  0  0  0  0
    0.4420    0.2930   -1.2940 C   0  0  0  0  0  0  0  0  0  0  0  0
   -2.4130   -0.4580   -0.9230 O   0  0  0  0  0  0  0  0  0  0  0  0
   -1.9210   -1.0130    1.4810 O   0  0  0  0  0  0  0  0  0  0  0  0
   -1.6360    1.9140    2.0670 C   0  0  0  0  0  0  0  0  0  0  0  0
   -2.1190    2.4550   -0.2810 C   0  0  0  0  0  0  0  0  0  0  0  0
    1.8110    0.3660   -1.5580 C   0  0  0  0  0  0  0  0  0  0  0  0
    0.9250   -0.2930    1.0120 C   0  0  0  0  0  0  0  0  0  0  0  0
    2.7330    0.1110   -0.5420 C   0  0  0  0  0  0  0  0  0  0  0  0
    2.2920   -0.2180    0.7410 C   0  0  0  0  0  0  0  0  0  0  0  0
   -2.8160    3.7670    0.1450 C   0  0  0  0  0  0  0  0  0  0  0  0
   -2.3260    3.2190    2.5290 C   0  0  0  0  0  0  0  0  0  0  0  0
   -2.8790    5.5700    1.8800 C   0  0  0  0  0  0  0  0  0  0  0  0
   -2.4760    6.7320    0.9850 C   0  0  0  0  0  0  0  0  0  0  0  0
   -1.6920    8.8170   -0.7040 C   0  0  0  0  0  0  0  0  0  0  0  0
   -1.3270    7.4730    1.2700 C   0  0  0  0  0  0  0  0  0  0  0  0
   -3.2170    7.0220   -0.1660 C   0  0  0  0  0  0  0  0  0  0  0  0
   -0.9410    8.5190    0.4310 C   0  0  0  0  0  0  0  0  0  0  0  0
   -2.8280    8.0680   -1.0030 C   0  0  0  0  0  0  0  0  0  0  0  0
    2.2910    0.7160   -2.9280 C   0  0  0  0  0  0  0  0  0  0  0  0
    4.1980    0.1920   -0.8310 C   0  0  0  0  0  0  0  0  0  0  0  0
   -1.2820    9.9390   -1.6010 C   0  0  0  0  0  0  0  0  0  0  0  0
   -1.2690    4.4850    1.2960 H   0  0  0  0  0  0  0  0  0  0  0  0
   -0.2740    0.4850   -2.0790 H   0  0  0  0  0  0  0  0  0  0  0  0
   -0.5680    2.1060    1.9670 H   0  0  0  0  0  0  0  0  0  0  0  0
   -1.7990    1.1500    2.8270 H   0  0  0  0  0  0  0  0  0  0  0  0
   -2.6210    2.0710   -1.1690 H   0  0  0  0  0  0  0  0  0  0  0  0
   -1.0790    2.6790   -0.5190 H   0  0  0  0  0  0  0  0  0  0  0  0
    0.5810   -0.5530    2.0020 H   0  0  0  0  0  0  0  0  0  0  0  0
    3.0090   -0.4150    1.5240 H   0  0  0  0  0  0  0  0  0  0  0  0
   -2.6660    4.5190   -0.6300 H   0  0  0  0  0  0  0  0  0  0  0  0
   -3.8830    3.5810    0.2690 H   0  0  0  0  0  0  0  0  0  0  0  0
   -3.3730    3.0110    2.7490 H   0  0  0  0  0  0  0  0  0  0  0  0
   -1.8320    3.5860    3.4290 H   0  0  0  0  0  0  0  0  0  0  0  0
   -2.5700    5.7900    2.9020 H   0  0  0  0  0  0  0  0  0  0  0  0
   -3.9630    5.4580    1.8440 H   0  0  0  0  0  0  0  0  0  0  0  0
   -0.7360    7.2360    2.1420 H   0  0  0  0  0  0  0  0  0  0  0  0
   -4.0910    6.4350   -0.4070 H   0  0  0  0  0  0  0  0  0  0  0  0
   -0.0590    9.0980    0.6620 H   0  0  0  0  0  0  0  0  0  0  0  0
   -3.4080    8.2980   -1.8840 H   0  0  0  0  0  0  0  0  0  0  0  0
    1.4350    0.8790   -3.5820 H   0  0  0  0  0  0  0  0  0  0  0  0
    2.8970   -0.1000   -3.3200 H   0  0  0  0  0  0  0  0  0  0  0  0
    2.8910    1.6250   -2.8820 H   0  0  0  0  0  0  0  0  0  0  0  0
    4.3480    0.4590   -1.8770 H   0  0  0  0  0  0  0  0  0  0  0  0
    4.6610   -0.7750   -0.6330 H   0  0  0  0  0  0  0  0  0  0  0  0
    4.6530    0.9500   -0.1940 H   0  0  0  0  0  0  0  0  0  0  0  0
   -0.3780   10.4050   -1.2100 H   0  0  0  0  0  0  0  0  0  0  0  0
   -2.0820   10.6780   -1.6470 H   0  0  0  0  0  0  0  0  0  0  0  0
   -1.0880    9.5520   -2.6010 H   0  0  0  0  0  0  0  0  0  0  0  0
  1  2  1  0  0  0  0
  1  3  1  0  0  0  0
  1  6  2  0  0  0  0
  1  7  2  0  0  0  0
  2  8  1  0  0  0  0
  2  9  1  0  0  0  0
  3  5  2  0  0  0  0
  3 11  1  0  0  0  0
  4 14  1  0  0  0  0
  4 15  1  0  0  0  0
  4 16  1  0  0  0  0
  4 26  1  0  0  0  0
  5 10  1  0  0  0  0
  5 27  1  0  0  0  0
  8 15  1  0  0  0  0
  8 28  1  0  0  0  0
  8 29  1  0  0  0  0
  9 14  1  0  0  0  0
  9 30  1  0  0  0  0
  9 31  1  0  0  0  0
 10 12  2  0  0  0  0
 10 23  1  0  0  0  0
 11 13  2  0  0  0  0
 11 32  1  0  0  0  0
 12 13  1  0  0  0  0
 12 24  1  0  0  0  0
 13 33  1  0  0  0  0
 14 34  1  0  0  0  0
 14 35  1  0  0  0  0
 15 36  1  0  0  0  0
 15 37  1  0  0  0  0
 16 17  1  0  0  0  0
 16 38  1  0  0  0  0
 16 39  1  0  0  0  0
 17 19  2  0  0  0  0
 17 20  1  0  0  0  0
 18 21  2  0  0  0  0
 18 22  1  0  0  0  0
 18 25  1  0  0  0  0
 19 21  1  0  0  0  0
 19 40  1  0  0  0  0
 20 22  2  0  0  0  0
 20 41  1  0  0  0  0
 21 42  1  0  0  0  0
 22 43  1  0  0  0  0
 23 44  1  0  0  0  0
 23 45  1  0  0  0  0
 23 46  1  0  0  0  0
 24 47  1  0  0  0  0
 24 48  1  0  0  0  0
 24 49  1  0  0  0  0
 25 50  1  0  0  0  0
 25 51  1  0  0  0  0
 25 52  1  0  0  0  0
M  CHG  1   4   1
M  END
>  <$CLUSTER>
727

>  <INDEX>
553334

$$$$
Tripos 1525-15078
  MOE2020           3D

 38 39  0  0  0  0  0  0  0  0999 V2000
    0.8590    1.9170   -0.5700 S   0  0  0  0  0  0  0  0  0  0  0  0
   -0.9920   -2.6270    1.2970 C   0  0  0  0  0  0  0  0  0  0  0  0
    0.3520    0.4420   -1.2820 N   0  0  0  0  0  0  0  0  0  0  0  0
   -1.8880   -1.9830    0.4450 C   0  0  0  0  0  0  0  0  0  0  0  0
   -1.4450   -3.6710    2.2220 C   0  0  0  0  0  0  0  0  0  0  0  0
   -0.7100    2.5850   -0.0630 C   0  0  0  0  0  0  0  0  0  0  0  0
   -5.3630    4.7160    1.6290 N   0  0  0  0  0  0  0  0  0  0  0  0
   -1.4380   -0.9750   -0.4100 C   0  0  0  0  0  0  0  0  0  0  0  0
    1.3590    2.7750   -1.6280 O   0  0  0  0  0  0  0  0  0  0  0  0
    1.6480    1.6790    0.6210 O   0  0  0  0  0  0  0  0  0  0  0  0
    0.3550   -2.2670    1.2960 C   0  0  0  0  0  0  0  0  0  0  0  0
   -4.3560    4.2540    1.2740 C   0  0  0  0  0  0  0  0  0  0  0  0
   -0.0880   -0.6140   -0.4100 C   0  0  0  0  0  0  0  0  0  0  0  0
   -2.5030   -3.6540    2.8320 O   0  0  0  0  0  0  0  0  0  0  0  0
   -1.4570    3.3980   -0.9310 C   0  0  0  0  0  0  0  0  0  0  0  0
   -1.1730    2.3640    1.2480 C   0  0  0  0  0  0  0  0  0  0  0  0
   -3.1280    3.7130    0.7890 C   0  0  0  0  0  0  0  0  0  0  0  0
    0.8100   -1.2600    0.4440 C   0  0  0  0  0  0  0  0  0  0  0  0
   -3.2070   -2.4080    0.4930 O   0  0  0  0  0  0  0  0  0  0  0  0
   -0.5380   -4.6730    2.2800 O   0  0  0  0  0  0  0  0  0  0  0  0
   -2.3830    2.9200    1.6650 C   0  0  0  0  0  0  0  0  0  0  0  0
   -2.6670    3.9520   -0.5060 C   0  0  0  0  0  0  0  0  0  0  0  0
   -0.8480   -5.7740    3.1450 C   0  0  0  0  0  0  0  0  0  0  0  0
   -4.1470   -1.7460   -0.3450 C   0  0  0  0  0  0  0  0  0  0  0  0
    0.3620    0.3180   -2.2840 H   0  0  0  0  0  0  0  0  0  0  0  0
   -2.1320   -0.4750   -1.0700 H   0  0  0  0  0  0  0  0  0  0  0  0
    1.0470   -2.7680    1.9560 H   0  0  0  0  0  0  0  0  0  0  0  0
   -1.0950    3.5950   -1.9290 H   0  0  0  0  0  0  0  0  0  0  0  0
   -0.5910    1.7640    1.9320 H   0  0  0  0  0  0  0  0  0  0  0  0
    1.8530   -0.9810    0.4450 H   0  0  0  0  0  0  0  0  0  0  0  0
   -2.7440    2.7370    2.6660 H   0  0  0  0  0  0  0  0  0  0  0  0
   -3.2460    4.5660   -1.1800 H   0  0  0  0  0  0  0  0  0  0  0  0
   -0.0430   -6.5080    3.1010 H   0  0  0  0  0  0  0  0  0  0  0  0
   -1.7800   -6.2380    2.8230 H   0  0  0  0  0  0  0  0  0  0  0  0
   -0.9560   -5.4130    4.1680 H   0  0  0  0  0  0  0  0  0  0  0  0
   -5.1340   -2.1840   -0.2000 H   0  0  0  0  0  0  0  0  0  0  0  0
   -3.8480   -1.8600   -1.3870 H   0  0  0  0  0  0  0  0  0  0  0  0
   -4.1790   -0.6870   -0.0900 H   0  0  0  0  0  0  0  0  0  0  0  0
  1  3  1  0  0  0  0
  1  6  1  0  0  0  0
  1  9  2  0  0  0  0
  1 10  2  0  0  0  0
  2  4  2  0  0  0  0
  2  5  1  0  0  0  0
  2 11  1  0  0  0  0
  3 13  1  0  0  0  0
  3 25  1  0  0  0  0
  4  8  1  0  0  0  0
  4 19  1  0  0  0  0
  5 14  2  0  0  0  0
  5 20  1  0  0  0  0
  6 15  1  0  0  0  0
  6 16  2  0  0  0  0
  7 12  3  0  0  0  0
  8 13  2  0  0  0  0
  8 26  1  0  0  0  0
 11 18  2  0  0  0  0
 11 27  1  0  0  0  0
 12 17  1  0  0  0  0
 13 18  1  0  0  0  0
 15 22  2  0  0  0  0
 15 28  1  0  0  0  0
 16 21  1  0  0  0  0
 16 29  1  0  0  0  0
 17 21  2  0  0  0  0
 17 22  1  0  0  0  0
 18 30  1  0  0  0  0
 19 24  1  0  0  0  0
 20 23  1  0  0  0  0
 21 31  1  0  0  0  0
 22 32  1  0  0  0  0
 23 33  1  0  0  0  0
 23 34  1  0  0  0  0
 23 35  1  0  0  0  0
 24 36  1  0  0  0  0
 24 37  1  0  0  0  0
 24 38  1  0  0  0  0
M  END
>  <$CLUSTER>
728

>  <INDEX>
447181

$$$$
Peakdale 3000093
  MOE2020           3D

 49 51  0  0  0  0  0  0  0  0999 V2000
   -2.4730    0.0200   -0.5510 C   0  0  0  0  0  0  0  0  0  0  0  0
   -1.1720   -0.4020   -0.7910 N   0  0  0  0  0  0  0  0  0  0  0  0
   -3.4750   -0.8400   -1.2810 C   0  0  0  0  0  0  0  0  0  0  0  0
    0.0300    0.0400   -0.1690 C   0  0  0  0  0  0  0  0  0  0  0  0
    1.3450   -2.9360   -3.5610 N   0  3  0  0  0  0  0  0  0  0  0  0
   -2.8420    0.9990    0.0910 O   0  0  0  0  0  0  0  0  0  0  0  0
   -3.8760   -0.5110   -2.5600 C   0  0  0  0  0  0  0  0  0  0  0  0
   -4.0250   -1.9220   -0.6020 C   0  0  0  0  0  0  0  0  0  0  0  0
    1.2400   -0.1450   -0.8900 C   0  0  0  0  0  0  0  0  0  0  0  0
    0.0800    0.6130    1.1240 C   0  0  0  0  0  0  0  0  0  0  0  0
    1.3030   -0.7830   -2.2640 C   0  0  0  0  0  0  0  0  0  0  0  0
    1.4000   -2.2990   -2.1850 C   0  0  0  0  0  0  0  0  0  0  0  0
   -3.5800   -2.3630    1.0080 Cl  0  0  0  0  0  0  0  0  0  0  0  0
   -3.2410    0.8390   -3.4330 Cl  0  0  0  0  0  0  0  0  0  0  0  0
   -1.0740    0.6240    1.8640 O   0  0  0  0  0  0  0  0  0  0  0  0
    2.5730   -2.6870   -4.3950 C   0  0  0  0  0  0  0  0  0  0  0  0
    1.0430   -4.4080   -3.4760 C   0  0  0  0  0  0  0  0  0  0  0  0
   -5.3830   -2.4040   -2.5470 C   0  0  0  0  0  0  0  0  0  0  0  0
    2.4870    0.8890    0.9210 C   0  0  0  0  0  0  0  0  0  0  0  0
   -4.9810   -2.7140   -1.2480 C   0  0  0  0  0  0  0  0  0  0  0  0
   -4.8320   -1.3040   -3.2020 C   0  0  0  0  0  0  0  0  0  0  0  0
    2.4550    0.2860   -0.3290 C   0  0  0  0  0  0  0  0  0  0  0  0
    1.3100    1.0460    1.6460 C   0  0  0  0  0  0  0  0  0  0  0  0
   -1.0770    1.3360    3.0960 C   0  0  0  0  0  0  0  0  0  0  0  0
    2.1920   -5.0410   -4.2960 C   0  0  0  0  0  0  0  0  0  0  0  0
    2.6210   -3.9480   -5.2510 C   0  0  0  0  0  0  0  0  0  0  0  0
   -1.0650   -1.1150   -1.4980 H   0  0  0  0  0  0  0  0  0  0  0  0
    0.5830   -2.4770   -4.0400 H   0  0  0  0  0  0  0  0  0  0  0  0
    2.1780   -0.4010   -2.7890 H   0  0  0  0  0  0  0  0  0  0  0  0
    0.4020   -0.5160   -2.8170 H   0  0  0  0  0  0  0  0  0  0  0  0
    2.3420   -2.5690   -1.7080 H   0  0  0  0  0  0  0  0  0  0  0  0
    0.5700   -2.6760   -1.5880 H   0  0  0  0  0  0  0  0  0  0  0  0
    3.4640   -2.5930   -3.7740 H   0  0  0  0  0  0  0  0  0  0  0  0
    2.4630   -1.7930   -5.0090 H   0  0  0  0  0  0  0  0  0  0  0  0
    0.0730   -4.6360   -3.9180 H   0  0  0  0  0  0  0  0  0  0  0  0
    1.0610   -4.7540   -2.4420 H   0  0  0  0  0  0  0  0  0  0  0  0
   -6.1210   -3.0160   -3.0450 H   0  0  0  0  0  0  0  0  0  0  0  0
    3.4240    1.2360    1.3300 H   0  0  0  0  0  0  0  0  0  0  0  0
   -5.4080   -3.5660   -0.7400 H   0  0  0  0  0  0  0  0  0  0  0  0
   -5.1440   -1.0640   -4.2080 H   0  0  0  0  0  0  0  0  0  0  0  0
    3.3750    0.1460   -0.8770 H   0  0  0  0  0  0  0  0  0  0  0  0
    1.3420    1.5070    2.6220 H   0  0  0  0  0  0  0  0  0  0  0  0
   -2.0590    1.2510    3.5620 H   0  0  0  0  0  0  0  0  0  0  0  0
   -0.8530    2.3860    2.9090 H   0  0  0  0  0  0  0  0  0  0  0  0
   -0.3220    0.9160    3.7600 H   0  0  0  0  0  0  0  0  0  0  0  0
    1.8390   -5.9150   -4.8440 H   0  0  0  0  0  0  0  0  0  0  0  0
    3.0170   -5.3300   -3.6450 H   0  0  0  0  0  0  0  0  0  0  0  0
    3.6300   -4.1290   -5.6220 H   0  0  0  0  0  0  0  0  0  0  0  0
    1.9320   -3.8740   -6.0930 H   0  0  0  0  0  0  0  0  0  0  0  0
  1  2  1  0  0  0  0
  1  3  1  0  0  0  0
  1  6  2  0  0  0  0
  2  4  1  0  0  0  0
  2 27  1  0  0  0  0
  3  7  1  0  0  0  0
  3  8  2  0  0  0  0
  4  9  2  0  0  0  0
  4 10  1  0  0  0  0
  5 12  1  0  0  0  0
  5 16  1  0  0  0  0
  5 17  1  0  0  0  0
  5 28  1  0  0  0  0
  7 14  1  0  0  0  0
  7 21  2  0  0  0  0
  8 13  1  0  0  0  0
  8 20  1  0  0  0  0
  9 11  1  0  0  0  0
  9 22  1  0  0  0  0
 10 15  1  0  0  0  0
 10 23  2  0  0  0  0
 11 12  1  0  0  0  0
 11 29  1  0  0  0  0
 11 30  1  0  0  0  0
 12 31  1  0  0  0  0
 12 32  1  0  0  0  0
 15 24  1  0  0  0  0
 16 26  1  0  0  0  0
 16 33  1  0  0  0  0
 16 34  1  0  0  0  0
 17 25  1  0  0  0  0
 17 35  1  0  0  0  0
 17 36  1  0  0  0  0
 18 20  2  0  0  0  0
 18 21  1  0  0  0  0
 18 37  1  0  0  0  0
 19 22  2  0  0  0  0
 19 23  1  0  0  0  0
 19 38  1  0  0  0  0
 20 39  1  0  0  0  0
 21 40  1  0  0  0  0
 22 41  1  0  0  0  0
 23 42  1  0  0  0  0
 24 43  1  0  0  0  0
 24 44  1  0  0  0  0
 24 45  1  0  0  0  0
 25 26  1  0  0  0  0
 25 46  1  0  0  0  0
 25 47  1  0  0  0  0
 26 48  1  0  0  0  0
 26 49  1  0  0  0  0
M  CHG  1   5   1
M  END
>  <$CLUSTER>
729

>  <INDEX>
477302

$$$$
Peakdale 3000737
  MOE2020           3D

 33 36  0  0  0  0  0  0  0  0999 V2000
   -0.7220    1.3530    0.7650 C   0  0  0  0  0  0  0  0  0  0  0  0
   -0.8010    0.8730   -0.6100 C   0  0  0  0  0  0  0  0  0  0  0  0
    0.1490    1.0630    1.7150 N   0  0  0  0  0  0  0  0  0  0  0  0
   -0.1060   -0.2400   -1.0940 C   0  0  0  0  0  0  0  0  0  0  0  0
   -1.6890    2.2460    1.1550 O   0  0  0  0  0  0  0  0  0  0  0  0
   -0.1740   -0.6350   -2.3920 N   0  0  0  0  0  0  0  0  0  0  0  0
   -0.9610    0.0960   -3.2000 C   0  0  0  0  0  0  0  0  0  0  0  0
   -0.2710    1.8030    2.7890 C   0  0  0  0  0  0  0  0  0  0  0  0
   -1.6820    1.1720   -2.8550 N   0  0  0  0  0  0  0  0  0  0  0  0
   -1.5770    1.5330   -1.5580 C   0  0  0  0  0  0  0  0  0  0  0  0
   -1.3870    2.5230    2.4530 C   0  0  0  0  0  0  0  0  0  0  0  0
    0.7430   -1.1100   -0.2720 C   0  0  0  0  0  0  0  0  0  0  0  0
    2.3790   -2.7950    1.2840 N   0  0  0  0  0  0  0  0  0  0  0  0
   -1.0870   -0.2320   -4.5140 N   0  0  0  0  0  0  0  0  0  0  0  0
    0.2510    1.9150    4.0900 C   0  0  0  0  0  0  0  0  0  0  0  0
   -2.0730    3.3820    3.3080 C   0  0  0  0  0  0  0  0  0  0  0  0
    1.0340   -2.8020    1.4000 C   0  0  0  0  0  0  0  0  0  0  0  0
    2.8960   -1.9380    0.3770 C   0  0  0  0  0  0  0  0  0  0  0  0
    0.1840   -1.9960    0.6560 C   0  0  0  0  0  0  0  0  0  0  0  0
    2.1350   -1.0910   -0.4150 C   0  0  0  0  0  0  0  0  0  0  0  0
   -0.4080    2.7700    4.9850 C   0  0  0  0  0  0  0  0  0  0  0  0
   -1.5470    3.4870    4.6000 C   0  0  0  0  0  0  0  0  0  0  0  0
   -2.1360    2.3980   -1.2320 H   0  0  0  0  0  0  0  0  0  0  0  0
   -1.6800    0.3200   -5.1180 H   0  0  0  0  0  0  0  0  0  0  0  0
   -0.5880   -1.0270   -4.8860 H   0  0  0  0  0  0  0  0  0  0  0  0
    1.1290    1.3620    4.3890 H   0  0  0  0  0  0  0  0  0  0  0  0
   -2.9500    3.9290    2.9950 H   0  0  0  0  0  0  0  0  0  0  0  0
    0.5920   -3.4780    2.1170 H   0  0  0  0  0  0  0  0  0  0  0  0
    3.9690   -1.9110    0.2610 H   0  0  0  0  0  0  0  0  0  0  0  0
   -0.8860   -2.0510    0.7900 H   0  0  0  0  0  0  0  0  0  0  0  0
    2.6070   -0.4300   -1.1270 H   0  0  0  0  0  0  0  0  0  0  0  0
   -0.0290    2.8770    5.9910 H   0  0  0  0  0  0  0  0  0  0  0  0
   -2.0300    4.1350    5.3160 H   0  0  0  0  0  0  0  0  0  0  0  0
  1  2  1  0  0  0  0
  1  3  2  0  0  0  0
  1  5  1  0  0  0  0
  2  4  1  0  0  0  0
  2 10  2  0  0  0  0
  3  8  1  0  0  0  0
  4  6  2  0  0  0  0
  4 12  1  0  0  0  0
  5 11  1  0  0  0  0
  6  7  1  0  0  0  0
  7  9  2  0  0  0  0
  7 14  1  0  0  0  0
  8 11  2  0  0  0  0
  8 15  1  0  0  0  0
  9 10  1  0  0  0  0
 10 23  1  0  0  0  0
 11 16  1  0  0  0  0
 12 19  2  0  0  0  0
 12 20  1  0  0  0  0
 13 17  2  0  0  0  0
 13 18  1  0  0  0  0
 14 24  1  0  0  0  0
 14 25  1  0  0  0  0
 15 21  2  0  0  0  0
 15 26  1  0  0  0  0
 16 22  2  0  0  0  0
 16 27  1  0  0  0  0
 17 19  1  0  0  0  0
 17 28  1  0  0  0  0
 18 20  2  0  0  0  0
 18 29  1  0  0  0  0
 19 30  1  0  0  0  0
 20 31  1  0  0  0  0
 21 22  1  0  0  0  0
 21 32  1  0  0  0  0
 22 33  1  0  0  0  0
M  END
>  <$CLUSTER>
730

>  <INDEX>
477791

$$$$
Peakdale 3001959
  MOE2020           3D

 43 46  0  0  0  0  0  0  0  0999 V2000
   -0.8690    0.8760    0.8720 C   0  0  0  0  0  0  0  0  0  0  0  0
    0.5360    1.6540    2.4890 N   0  0  0  0  0  0  0  0  0  0  0  0
   -0.7420    1.9550    2.7610 N   0  0  0  0  0  0  0  0  0  0  0  0
    0.4840    0.9960    1.3180 C   0  0  0  0  0  0  0  0  0  0  0  0
   -1.6270    1.5150    1.8270 C   0  0  0  0  0  0  0  0  0  0  0  0
   -1.4680    0.2430   -0.2900 C   0  0  0  0  0  0  0  0  0  0  0  0
   -1.0700    2.6690    3.9420 C   0  0  0  0  0  0  0  0  0  0  0  0
   -1.4530   -1.1650   -0.4770 C   0  0  0  0  0  0  0  0  0  0  0  0
    1.7040    0.5080    0.6850 C   0  0  0  0  0  0  0  0  0  0  0  0
   -2.5830   -0.8620   -2.5960 N   0  0  0  0  0  0  0  0  0  0  0  0
   -2.2370    2.9360    4.1850 O   0  0  0  0  0  0  0  0  0  0  0  0
   -2.0290   -1.6630   -1.6690 C   0  0  0  0  0  0  0  0  0  0  0  0
    3.8950   -0.5130    0.9260 N   0  0  0  0  0  0  0  0  0  0  0  0
    0.0430    2.9750    4.6810 N   0  0  0  0  0  0  0  0  0  0  0  0
   -2.5880    0.4690   -2.3750 C   0  0  0  0  0  0  0  0  0  0  0  0
   -2.0520    1.0670   -1.2550 C   0  0  0  0  0  0  0  0  0  0  0  0
    2.7400   -0.0330    1.4430 C   0  0  0  0  0  0  0  0  0  0  0  0
   -0.9100   -2.0920    0.4490 C   0  0  0  0  0  0  0  0  0  0  0  0
    1.8900    0.5630   -0.6980 C   0  0  0  0  0  0  0  0  0  0  0  0
    4.0280   -0.4460   -0.4160 C   0  0  0  0  0  0  0  0  0  0  0  0
   -0.0480    3.7020    5.9330 C   0  0  0  0  0  0  0  0  0  0  0  0
   -2.0280   -3.0360   -1.8960 C   0  0  0  0  0  0  0  0  0  0  0  0
    3.0670    0.0770   -1.2630 C   0  0  0  0  0  0  0  0  0  0  0  0
   -0.0490    5.2020    5.7060 C   0  0  0  0  0  0  0  0  0  0  0  0
   -0.9220   -3.4620    0.1960 C   0  0  0  0  0  0  0  0  0  0  0  0
   -1.4800   -3.9350   -0.9810 C   0  0  0  0  0  0  0  0  0  0  0  0
   -2.7000    1.6410    1.8330 H   0  0  0  0  0  0  0  0  0  0  0  0
    0.9510    2.6870    4.3450 H   0  0  0  0  0  0  0  0  0  0  0  0
   -3.0400    1.1050   -3.1220 H   0  0  0  0  0  0  0  0  0  0  0  0
   -2.0830    2.1390   -1.1270 H   0  0  0  0  0  0  0  0  0  0  0  0
    2.6130   -0.0720    2.5150 H   0  0  0  0  0  0  0  0  0  0  0  0
   -0.4780   -1.7280    1.3700 H   0  0  0  0  0  0  0  0  0  0  0  0
    1.1210    0.9820   -1.3300 H   0  0  0  0  0  0  0  0  0  0  0  0
    4.9400   -0.8240   -0.8550 H   0  0  0  0  0  0  0  0  0  0  0  0
    0.8050    3.4390    6.5580 H   0  0  0  0  0  0  0  0  0  0  0  0
   -0.9710    3.4200    6.4400 H   0  0  0  0  0  0  0  0  0  0  0  0
   -2.4640   -3.4170   -2.8080 H   0  0  0  0  0  0  0  0  0  0  0  0
    3.2250    0.1080   -2.3310 H   0  0  0  0  0  0  0  0  0  0  0  0
    0.8710    5.4930    5.1990 H   0  0  0  0  0  0  0  0  0  0  0  0
   -0.1130    5.7150    6.6660 H   0  0  0  0  0  0  0  0  0  0  0  0
   -0.9060    5.4760    5.0900 H   0  0  0  0  0  0  0  0  0  0  0  0
   -0.4990   -4.1510    0.9120 H   0  0  0  0  0  0  0  0  0  0  0  0
   -1.4910   -4.9950   -1.1890 H   0  0  0  0  0  0  0  0  0  0  0  0
  1  4  1  0  0  0  0
  1  5  2  0  0  0  0
  1  6  1  0  0  0  0
  2  3  1  0  0  0  0
  2  4  2  0  0  0  0
  3  5  1  0  0  0  0
  3  7  1  0  0  0  0
  4  9  1  0  0  0  0
  5 27  1  0  0  0  0
  6  8  1  0  0  0  0
  6 16  2  0  0  0  0
  7 11  2  0  0  0  0
  7 14  1  0  0  0  0
  8 12  2  0  0  0  0
  8 18  1  0  0  0  0
  9 17  2  0  0  0  0
  9 19  1  0  0  0  0
 10 12  1  0  0  0  0
 10 15  2  0  0  0  0
 12 22  1  0  0  0  0
 13 17  1  0  0  0  0
 13 20  2  0  0  0  0
 14 21  1  0  0  0  0
 14 28  1  0  0  0  0
 15 16  1  0  0  0  0
 15 29  1  0  0  0  0
 16 30  1  0  0  0  0
 17 31  1  0  0  0  0
 18 25  2  0  0  0  0
 18 32  1  0  0  0  0
 19 23  2  0  0  0  0
 19 33  1  0  0  0  0
 20 23  1  0  0  0  0
 20 34  1  0  0  0  0
 21 24  1  0  0  0  0
 21 35  1  0  0  0  0
 21 36  1  0  0  0  0
 22 26  2  0  0  0  0
 22 37  1  0  0  0  0
 23 38  1  0  0  0  0
 24 39  1  0  0  0  0
 24 40  1  0  0  0  0
 24 41  1  0  0  0  0
 25 26  1  0  0  0  0
 25 42  1  0  0  0  0
 26 43  1  0  0  0  0
M  END
>  <$CLUSTER>
731

>  <INDEX>
478292

$$$$
Otava 7014750353
  MOE2020           3D

 47 48  0  0  0  0  0  0  0  0999 V2000
   -2.3060    0.0160    0.5850 C   0  0  0  0  0  0  0  0  0  0  0  0
   -3.5710   -2.5210   -2.3250 C   0  0  0  0  0  0  0  0  0  0  0  0
   -1.2320   -0.6960    0.0670 N   0  0  0  0  0  0  0  0  0  0  0  0
   -2.5780   -3.1350   -1.6400 N   0  0  0  0  0  0  0  0  0  0  0  0
   -2.3000    1.1410    1.0760 O   0  0  0  0  0  0  0  0  0  0  0  0
   -4.4930   -3.1340   -2.8520 O   0  0  0  0  0  0  0  0  0  0  0  0
   -4.5440   -0.2820   -0.9940 S   0  0  0  0  0  0  0  0  0  0  0  0
    0.1180   -0.2820   -0.0120 C   0  0  0  0  0  0  0  0  0  0  0  0
   -2.4090   -4.5610   -1.5010 C   0  0  0  0  0  0  0  0  0  0  0  0
    2.8410    0.3710   -0.2500 C   0  0  0  0  0  0  0  0  0  0  0  0
    0.5920    0.9540    0.4380 C   0  0  0  0  0  0  0  0  0  0  0  0
    1.0270   -1.1870   -0.5830 C   0  0  0  0  0  0  0  0  0  0  0  0
    1.9480    1.2770    0.3180 C   0  0  0  0  0  0  0  0  0  0  0  0
    2.3800   -0.8620   -0.7010 C   0  0  0  0  0  0  0  0  0  0  0  0
   -3.5850   -0.7760    0.4840 C   0  0  0  0  0  0  0  0  0  0  0  0
   -3.5050   -1.0000   -2.2960 C   0  0  0  0  0  0  0  0  0  0  0  0
   -1.6910   -5.1600   -2.6960 C   0  0  0  0  0  0  0  0  0  0  0  0
    4.1890    0.5750   -0.4190 O   0  0  0  0  0  0  0  0  0  0  0  0
    4.7200    1.8240    0.0260 C   0  0  0  0  0  0  0  0  0  0  0  0
   -0.3160   -5.4400   -2.6410 C   0  0  0  0  0  0  0  0  0  0  0  0
   -2.3900   -5.4340   -3.8830 C   0  0  0  0  0  0  0  0  0  0  0  0
    6.2110    1.8250   -0.2600 C   0  0  0  0  0  0  0  0  0  0  0  0
    0.3410   -5.9940   -3.7430 C   0  0  0  0  0  0  0  0  0  0  0  0
   -1.7320   -5.9890   -4.9840 C   0  0  0  0  0  0  0  0  0  0  0  0
   -0.3680   -6.2720   -4.9130 C   0  0  0  0  0  0  0  0  0  0  0  0
   -1.4390   -1.6160   -0.2950 H   0  0  0  0  0  0  0  0  0  0  0  0
   -1.8960   -2.5430   -1.1870 H   0  0  0  0  0  0  0  0  0  0  0  0
   -3.3910   -5.0260   -1.4090 H   0  0  0  0  0  0  0  0  0  0  0  0
   -1.8270   -4.7620   -0.6020 H   0  0  0  0  0  0  0  0  0  0  0  0
   -0.0920    1.6630    0.8800 H   0  0  0  0  0  0  0  0  0  0  0  0
    0.6760   -2.1460   -0.9350 H   0  0  0  0  0  0  0  0  0  0  0  0
    2.3050    2.2350    0.6680 H   0  0  0  0  0  0  0  0  0  0  0  0
    3.0680   -1.5680   -1.1420 H   0  0  0  0  0  0  0  0  0  0  0  0
   -4.1860   -0.5980    1.3760 H   0  0  0  0  0  0  0  0  0  0  0  0
   -3.3430   -1.8370    0.4150 H   0  0  0  0  0  0  0  0  0  0  0  0
   -3.8390   -0.6180   -3.2600 H   0  0  0  0  0  0  0  0  0  0  0  0
   -2.4720   -0.6990   -2.1240 H   0  0  0  0  0  0  0  0  0  0  0  0
    4.5480    1.9390    1.0960 H   0  0  0  0  0  0  0  0  0  0  0  0
    4.2400    2.6430   -0.5100 H   0  0  0  0  0  0  0  0  0  0  0  0
    0.2380   -5.2250   -1.7390 H   0  0  0  0  0  0  0  0  0  0  0  0
   -3.4450   -5.2140   -3.9450 H   0  0  0  0  0  0  0  0  0  0  0  0
    6.6850    1.0040    0.2780 H   0  0  0  0  0  0  0  0  0  0  0  0
    6.6430    2.7710    0.0660 H   0  0  0  0  0  0  0  0  0  0  0  0
    6.3760    1.7000   -1.3300 H   0  0  0  0  0  0  0  0  0  0  0  0
    1.3980   -6.2070   -3.6890 H   0  0  0  0  0  0  0  0  0  0  0  0
   -2.2800   -6.1990   -5.8910 H   0  0  0  0  0  0  0  0  0  0  0  0
    0.1390   -6.7060   -5.7620 H   0  0  0  0  0  0  0  0  0  0  0  0
  1  3  1  0  0  0  0
  1  5  2  0  0  0  0
  1 15  1  0  0  0  0
  2  4  1  0  0  0  0
  2  6  2  0  0  0  0
  2 16  1  0  0  0  0
  3  8  1  0  0  0  0
  3 26  1  0  0  0  0
  4  9  1  0  0  0  0
  4 27  1  0  0  0  0
  7 15  1  0  0  0  0
  7 16  1  0  0  0  0
  8 11  2  0  0  0  0
  8 12  1  0  0  0  0
  9 17  1  0  0  0  0
  9 28  1  0  0  0  0
  9 29  1  0  0  0  0
 10 13  2  0  0  0  0
 10 14  1  0  0  0  0
 10 18  1  0  0  0  0
 11 13  1  0  0  0  0
 11 30  1  0  0  0  0
 12 14  2  0  0  0  0
 12 31  1  0  0  0  0
 13 32  1  0  0  0  0
 14 33  1  0  0  0  0
 15 34  1  0  0  0  0
 15 35  1  0  0  0  0
 16 36  1  0  0  0  0
 16 37  1  0  0  0  0
 17 20  2  0  0  0  0
 17 21  1  0  0  0  0
 18 19  1  0  0  0  0
 19 22  1  0  0  0  0
 19 38  1  0  0  0  0
 19 39  1  0  0  0  0
 20 23  1  0  0  0  0
 20 40  1  0  0  0  0
 21 24  2  0  0  0  0
 21 41  1  0  0  0  0
 22 42  1  0  0  0  0
 22 43  1  0  0  0  0
 22 44  1  0  0  0  0
 23 25  2  0  0  0  0
 23 45  1  0  0  0  0
 24 25  1  0  0  0  0
 24 46  1  0  0  0  0
 25 47  1  0  0  0  0
M  END
>  <$CLUSTER>
732

>  <INDEX>
480756

$$$$
Otava 7016260528
  MOE2020           3D

 56 58  0  0  0  0  0  0  0  0999 V2000
    0.6760    1.8770    1.6040 C   0  0  0  0  0  0  0  0  0  0  0  0
    0.6280    1.1240    0.4390 N   0  0  0  0  0  0  0  0  0  0  0  0
    8.9390    8.0000    0.5390 C   0  0  0  0  0  0  0  0  0  0  0  0
    7.8070    7.1530    0.5210 N   0  0  0  0  0  0  0  0  0  0  0  0
   -0.3630    0.1890    0.0440 C   0  0  0  0  0  0  0  0  0  0  0  0
    7.0580    6.6220    1.5620 C   0  0  0  0  0  0  0  0  0  0  0  0
    9.5060    8.4580    1.7350 C   0  0  0  0  0  0  0  0  0  0  0  0
    1.9040    2.7520    1.6350 C   0  0  0  0  0  0  0  0  0  0  0  0
    9.5120    8.3930   -0.6910 C   0  0  0  0  0  0  0  0  0  0  0  0
   -0.1280    1.8900    2.5300 O   0  0  0  0  0  0  0  0  0  0  0  0
   -0.1900   -0.4580   -1.2000 C   0  0  0  0  0  0  0  0  0  0  0  0
    7.2980    6.8340    2.7390 O   0  0  0  0  0  0  0  0  0  0  0  0
    2.5570    3.2290    0.5240 C   0  0  0  0  0  0  0  0  0  0  0  0
    2.3520    3.1500    2.9330 C   0  0  0  0  0  0  0  0  0  0  0  0
   10.6330    9.2320   -0.7000 C   0  0  0  0  0  0  0  0  0  0  0  0
   10.6240    9.2940    1.7120 C   0  0  0  0  0  0  0  0  0  0  0  0
    5.2050    5.2540    2.1710 O   0  0  0  0  0  0  0  0  0  0  0  0
    5.9220    5.7570    1.0440 C   0  0  0  0  0  0  0  0  0  0  0  0
    4.1300    4.4340    1.9150 C   0  0  0  0  0  0  0  0  0  0  0  0
   11.1870    9.6800    0.5000 C   0  0  0  0  0  0  0  0  0  0  0  0
    3.6730    4.0610    0.6520 C   0  0  0  0  0  0  0  0  0  0  0  0
    3.4690    3.9810    3.0540 C   0  0  0  0  0  0  0  0  0  0  0  0
    8.9010    7.9040   -1.8200 O   0  0  0  0  0  0  0  0  0  0  0  0
    0.9370   -0.1090   -1.9050 O   0  0  0  0  0  0  0  0  0  0  0  0
   11.2580    9.8000    2.8280 O   0  0  0  0  0  0  0  0  0  0  0  0
   -1.4880   -0.1140    0.8210 C   0  0  0  0  0  0  0  0  0  0  0  0
   -1.1390   -1.3900   -1.6380 C   0  0  0  0  0  0  0  0  0  0  0  0
    9.4510    8.2800   -3.0770 C   0  0  0  0  0  0  0  0  0  0  0  0
    1.1440   -0.7410   -3.1630 C   0  0  0  0  0  0  0  0  0  0  0  0
   10.7250    9.4380    4.0960 C   0  0  0  0  0  0  0  0  0  0  0  0
   -2.4270   -1.0450    0.3730 C   0  0  0  0  0  0  0  0  0  0  0  0
   -2.2540   -1.6810   -0.8520 C   0  0  0  0  0  0  0  0  0  0  0  0
    1.3930    1.2580   -0.2070 H   0  0  0  0  0  0  0  0  0  0  0  0
    7.4910    6.8910   -0.4020 H   0  0  0  0  0  0  0  0  0  0  0  0
    9.0760    8.1630    2.6810 H   0  0  0  0  0  0  0  0  0  0  0  0
    2.2040    2.9580   -0.4600 H   0  0  0  0  0  0  0  0  0  0  0  0
    1.8300    2.8100    3.8150 H   0  0  0  0  0  0  0  0  0  0  0  0
   11.0710    9.5340   -1.6400 H   0  0  0  0  0  0  0  0  0  0  0  0
    6.3240    4.9280    0.4610 H   0  0  0  0  0  0  0  0  0  0  0  0
    5.2580    6.3530    0.4190 H   0  0  0  0  0  0  0  0  0  0  0  0
   12.0520   10.3260    0.4880 H   0  0  0  0  0  0  0  0  0  0  0  0
    4.1830    4.4160   -0.2310 H   0  0  0  0  0  0  0  0  0  0  0  0
    3.8200    4.2730    4.0330 H   0  0  0  0  0  0  0  0  0  0  0  0
   -1.6300    0.3760    1.7730 H   0  0  0  0  0  0  0  0  0  0  0  0
   -1.0070   -1.8860   -2.5880 H   0  0  0  0  0  0  0  0  0  0  0  0
    8.8710    7.8230   -3.8790 H   0  0  0  0  0  0  0  0  0  0  0  0
   10.4850    7.9400   -3.1380 H   0  0  0  0  0  0  0  0  0  0  0  0
    9.4190    9.3650   -3.1780 H   0  0  0  0  0  0  0  0  0  0  0  0
    2.0680   -0.3720   -3.6070 H   0  0  0  0  0  0  0  0  0  0  0  0
    0.3080   -0.5160   -3.8250 H   0  0  0  0  0  0  0  0  0  0  0  0
    1.2140   -1.8190   -3.0210 H   0  0  0  0  0  0  0  0  0  0  0  0
   11.3160    9.9030    4.8850 H   0  0  0  0  0  0  0  0  0  0  0  0
   10.7580    8.3540    4.2080 H   0  0  0  0  0  0  0  0  0  0  0  0
    9.6920    9.7800    4.1670 H   0  0  0  0  0  0  0  0  0  0  0  0
   -3.2910   -1.2720    0.9800 H   0  0  0  0  0  0  0  0  0  0  0  0
   -2.9830   -2.4000   -1.1950 H   0  0  0  0  0  0  0  0  0  0  0  0
  1  2  1  0  0  0  0
  1  8  1  0  0  0  0
  1 10  2  0  0  0  0
  2  5  1  0  0  0  0
  2 33  1  0  0  0  0
  3  4  1  0  0  0  0
  3  7  1  0  0  0  0
  3  9  2  0  0  0  0
  4  6  1  0  0  0  0
  4 34  1  0  0  0  0
  5 11  2  0  0  0  0
  5 26  1  0  0  0  0
  6 12  2  0  0  0  0
  6 18  1  0  0  0  0
  7 16  2  0  0  0  0
  7 35  1  0  0  0  0
  8 13  2  0  0  0  0
  8 14  1  0  0  0  0
  9 15  1  0  0  0  0
  9 23  1  0  0  0  0
 11 24  1  0  0  0  0
 11 27  1  0  0  0  0
 13 21  1  0  0  0  0
 13 36  1  0  0  0  0
 14 22  2  0  0  0  0
 14 37  1  0  0  0  0
 15 20  2  0  0  0  0
 15 38  1  0  0  0  0
 16 20  1  0  0  0  0
 16 25  1  0  0  0  0
 17 18  1  0  0  0  0
 17 19  1  0  0  0  0
 18 39  1  0  0  0  0
 18 40  1  0  0  0  0
 19 21  2  0  0  0  0
 19 22  1  0  0  0  0
 20 41  1  0  0  0  0
 21 42  1  0  0  0  0
 22 43  1  0  0  0  0
 23 28  1  0  0  0  0
 24 29  1  0  0  0  0
 25 30  1  0  0  0  0
 26 31  2  0  0  0  0
 26 44  1  0  0  0  0
 27 32  2  0  0  0  0
 27 45  1  0  0  0  0
 28 46  1  0  0  0  0
 28 47  1  0  0  0  0
 28 48  1  0  0  0  0
 29 49  1  0  0  0  0
 29 50  1  0  0  0  0
 29 51  1  0  0  0  0
 30 52  1  0  0  0  0
 30 53  1  0  0  0  0
 30 54  1  0  0  0  0
 31 32  1  0  0  0  0
 31 55  1  0  0  0  0
 32 56  1  0  0  0  0
M  END
>  <$CLUSTER>
733

>  <INDEX>
481559

$$$$
Toslab 21013
  MOE2020           3D

 18 19  0  0  0  0  0  0  0  0999 V2000
    0.0740   -0.0670    0.6530 N   0  0  0  0  0  0  0  0  0  0  0  0
   -1.0200    0.7140    0.9910 C   0  0  0  0  0  0  0  0  0  0  0  0
   -1.7690    1.1440    0.0280 N   0  3  0  0  0  0  0  0  0  0  0  0
    0.4230   -0.4180   -0.6290 C   0  0  0  0  0  0  0  0  0  0  0  0
   -0.4240    0.0730   -1.6550 C   0  0  0  0  0  0  0  0  0  0  0  0
   -1.4790    0.8300   -1.2900 C   0  0  0  0  0  0  0  0  0  0  0  0
    1.5070   -1.1590   -0.5890 N   0  0  0  0  0  0  0  0  0  0  0  0
    0.9250   -0.5720    1.5550 N   0  0  0  0  0  0  0  0  0  0  0  0
    1.7740   -1.2250    0.7550 C   0  0  0  0  0  0  0  0  0  0  0  0
   -1.2460    0.9800    2.2510 N   0  0  0  0  0  0  0  0  0  0  0  0
   -2.3650    1.3580   -2.2050 N   0  0  0  0  0  0  0  0  0  0  0  0
   -2.5750    1.7150    0.2390 H   0  0  0  0  0  0  0  0  0  0  0  0
   -0.2310   -0.1520   -2.6940 H   0  0  0  0  0  0  0  0  0  0  0  0
    2.6200   -1.7720    1.1440 H   0  0  0  0  0  0  0  0  0  0  0  0
   -2.0390    1.5480    2.5130 H   0  0  0  0  0  0  0  0  0  0  0  0
   -0.6270    0.6180    2.9620 H   0  0  0  0  0  0  0  0  0  0  0  0
   -2.2370    1.1830   -3.1910 H   0  0  0  0  0  0  0  0  0  0  0  0
   -3.1420    1.9200   -1.8890 H   0  0  0  0  0  0  0  0  0  0  0  0
  1  2  1  0  0  0  0
  1  4  1  0  0  0  0
  1  8  1  0  0  0  0
  2  3  2  0  0  0  0
  2 10  1  0  0  0  0
  3  6  1  0  0  0  0
  3 12  1  0  0  0  0
  4  5  1  0  0  0  0
  4  7  2  0  0  0  0
  5  6  2  0  0  0  0
  5 13  1  0  0  0  0
  6 11  1  0  0  0  0
  7  9  1  0  0  0  0
  8  9  2  0  0  0  0
  9 14  1  0  0  0  0
 10 15  1  0  0  0  0
 10 16  1  0  0  0  0
 11 17  1  0  0  0  0
 11 18  1  0  0  0  0
M  CHG  1   3   1
M  END
>  <$CLUSTER>
734

>  <INDEX>
476945

$$$$
Life Chemicals F0642-0697
  MOE2020           3D

 37 39  0  0  0  0  0  0  0  0999 V2000
   -1.1660    0.9650    0.4690 N   0  0  0  0  0  0  0  0  0  0  0  0
   -0.8780   -0.3200    0.3930 C   0  0  0  0  0  0  0  0  0  0  0  0
   -2.5280    1.1580    0.3500 C   0  0  0  0  0  0  0  0  0  0  0  0
   -2.2540   -1.3490    0.1750 S   0  0  0  0  0  0  0  0  0  0  0  0
   -3.2800    0.0190    0.1840 C   0  0  0  0  0  0  0  0  0  0  0  0
    2.4910   -0.2310   -0.3130 C   0  0  0  0  0  0  0  0  0  0  0  0
    1.4950   -0.1210    0.6340 N   0  0  0  0  0  0  0  0  0  0  0  0
    0.3570   -0.8690    0.4700 N   0  0  0  0  0  0  0  0  0  0  0  0
    3.6780    0.6410   -0.0040 C   0  0  0  0  0  0  0  0  0  0  0  0
   -3.1780    2.4340    0.3890 C   0  0  0  0  0  0  0  0  0  0  0  0
    2.4690   -0.9660   -1.2980 O   0  0  0  0  0  0  0  0  0  0  0  0
    4.4860    1.0010   -1.1230 C   0  0  0  0  0  0  0  0  0  0  0  0
    4.0370    1.0480    1.2540 C   0  0  0  0  0  0  0  0  0  0  0  0
    5.9560    2.2200    0.3580 C   0  0  0  0  0  0  0  0  0  0  0  0
    5.6150    1.7980   -0.9260 C   0  0  0  0  0  0  0  0  0  0  0  0
    5.1690    1.8440    1.4460 C   0  0  0  0  0  0  0  0  0  0  0  0
    7.0460    2.9810    0.4590 F   0  0  0  0  0  0  0  0  0  0  0  0
   -2.3780    3.5340    0.5560 O   0  0  0  0  0  0  0  0  0  0  0  0
   -4.6810    0.0520    0.0480 C   0  0  0  0  0  0  0  0  0  0  0  0
   -5.3100    1.2960    0.0860 C   0  0  0  0  0  0  0  0  0  0  0  0
   -4.5750    2.4680    0.2520 C   0  0  0  0  0  0  0  0  0  0  0  0
   -3.0140    4.8110    0.5960 C   0  0  0  0  0  0  0  0  0  0  0  0
   -1.9370    5.8620    0.7880 C   0  0  0  0  0  0  0  0  0  0  0  0
    1.6010    0.4940    1.4280 H   0  0  0  0  0  0  0  0  0  0  0  0
    0.4440   -1.8730    0.4040 H   0  0  0  0  0  0  0  0  0  0  0  0
    4.2260    0.6600   -2.1140 H   0  0  0  0  0  0  0  0  0  0  0  0
    3.4400    0.7510    2.1040 H   0  0  0  0  0  0  0  0  0  0  0  0
    6.2250    2.0880   -1.7690 H   0  0  0  0  0  0  0  0  0  0  0  0
    5.4360    2.1690    2.4410 H   0  0  0  0  0  0  0  0  0  0  0  0
   -5.2500   -0.8570   -0.0820 H   0  0  0  0  0  0  0  0  0  0  0  0
   -6.3840    1.3520   -0.0150 H   0  0  0  0  0  0  0  0  0  0  0  0
   -5.0880    3.4180    0.2760 H   0  0  0  0  0  0  0  0  0  0  0  0
   -3.7190    4.8480    1.4260 H   0  0  0  0  0  0  0  0  0  0  0  0
   -3.5440    4.9900   -0.3390 H   0  0  0  0  0  0  0  0  0  0  0  0
   -1.4110    5.6770    1.7250 H   0  0  0  0  0  0  0  0  0  0  0  0
   -2.3950    6.8510    0.8180 H   0  0  0  0  0  0  0  0  0  0  0  0
   -1.2310    5.8140   -0.0410 H   0  0  0  0  0  0  0  0  0  0  0  0
  1  2  2  0  0  0  0
  1  3  1  0  0  0  0
  2  4  1  0  0  0  0
  2  8  1  0  0  0  0
  3  5  2  0  0  0  0
  3 10  1  0  0  0  0
  4  5  1  0  0  0  0
  5 19  1  0  0  0  0
  6  7  1  0  0  0  0
  6  9  1  0  0  0  0
  6 11  2  0  0  0  0
  7  8  1  0  0  0  0
  7 24  1  0  0  0  0
  8 25  1  0  0  0  0
  9 12  2  0  0  0  0
  9 13  1  0  0  0  0
 10 18  1  0  0  0  0
 10 21  2  0  0  0  0
 12 15  1  0  0  0  0
 12 26  1  0  0  0  0
 13 16  2  0  0  0  0
 13 27  1  0  0  0  0
 14 15  2  0  0  0  0
 14 16  1  0  0  0  0
 14 17  1  0  0  0  0
 15 28  1  0  0  0  0
 16 29  1  0  0  0  0
 18 22  1  0  0  0  0
 19 20  2  0  0  0  0
 19 30  1  0  0  0  0
 20 21  1  0  0  0  0
 20 31  1  0  0  0  0
 21 32  1  0  0  0  0
 22 23  1  0  0  0  0
 22 33  1  0  0  0  0
 22 34  1  0  0  0  0
 23 35  1  0  0  0  0
 23 36  1  0  0  0  0
 23 37  1  0  0  0  0
M  END
>  <$CLUSTER>
735

>  <INDEX>
280059

$$$$
Chembridge 6737853
  MOE2020           3D

 43 44  0  0  0  0  0  0  0  0999 V2000
   -2.2200    0.1030    0.3940 C   0  0  0  0  0  0  0  0  0  0  0  0
   -2.1700   -0.6700    4.3820 C   0  0  0  0  0  0  0  0  0  0  0  0
   -0.9220    0.1730    0.8820 N   0  0  0  0  0  0  0  0  0  0  0  0
    2.7070   -0.1970    0.2840 C   0  0  0  0  0  0  0  0  0  0  0  0
   -1.2420    0.2830    4.1310 N   0  0  0  0  0  0  0  0  0  0  0  0
    0.2780   -0.0950    0.1810 C   0  0  0  0  0  0  0  0  0  0  0  0
    1.4760    0.0470    0.8970 C   0  0  0  0  0  0  0  0  0  0  0  0
    2.7550   -0.5850   -1.0510 C   0  0  0  0  0  0  0  0  0  0  0  0
   -2.5870   -0.2030   -0.7360 O   0  0  0  0  0  0  0  0  0  0  0  0
   -2.7810   -0.7410    5.4430 O   0  0  0  0  0  0  0  0  0  0  0  0
    1.5710   -0.7290   -1.7720 C   0  0  0  0  0  0  0  0  0  0  0  0
   -3.9120   -1.0370    2.2460 S   0  0  0  0  0  0  0  0  0  0  0  0
    0.3360   -0.4850   -1.1610 C   0  0  0  0  0  0  0  0  0  0  0  0
   -0.6960    1.3020    4.9270 C   0  0  0  0  0  0  0  0  0  0  0  0
   -3.2230    0.4650    1.4600 C   0  0  0  0  0  0  0  0  0  0  0  0
   -2.4680   -1.5820    3.1990 C   0  0  0  0  0  0  0  0  0  0  0  0
    3.9700   -0.0400    1.0670 C   0  0  0  0  0  0  0  0  0  0  0  0
    4.0680   -0.8460   -1.7120 C   0  0  0  0  0  0  0  0  0  0  0  0
    0.3000    2.1280    4.3860 C   0  0  0  0  0  0  0  0  0  0  0  0
   -1.1180    1.5260    6.2420 C   0  0  0  0  0  0  0  0  0  0  0  0
    0.8630    3.1580    5.1440 C   0  0  0  0  0  0  0  0  0  0  0  0
   -0.5520    2.5590    6.9980 C   0  0  0  0  0  0  0  0  0  0  0  0
    0.4370    3.3730    6.4500 C   0  0  0  0  0  0  0  0  0  0  0  0
   -0.8230    0.4470    1.8490 H   0  0  0  0  0  0  0  0  0  0  0  0
   -0.8720    0.2560    3.1920 H   0  0  0  0  0  0  0  0  0  0  0  0
    1.4460    0.3480    1.9340 H   0  0  0  0  0  0  0  0  0  0  0  0
    1.6070   -1.0310   -2.8080 H   0  0  0  0  0  0  0  0  0  0  0  0
   -0.5760   -0.5980   -1.7280 H   0  0  0  0  0  0  0  0  0  0  0  0
   -4.0340    1.0350    1.0080 H   0  0  0  0  0  0  0  0  0  0  0  0
   -2.7320    1.0720    2.2200 H   0  0  0  0  0  0  0  0  0  0  0  0
   -2.6560   -2.5890    3.5730 H   0  0  0  0  0  0  0  0  0  0  0  0
   -1.6000   -1.5950    2.5400 H   0  0  0  0  0  0  0  0  0  0  0  0
    3.7310    0.2670    2.0850 H   0  0  0  0  0  0  0  0  0  0  0  0
    4.5970    0.7180    0.5970 H   0  0  0  0  0  0  0  0  0  0  0  0
    4.5040   -0.9900    1.0900 H   0  0  0  0  0  0  0  0  0  0  0  0
    4.8740   -0.6830   -0.9960 H   0  0  0  0  0  0  0  0  0  0  0  0
    4.1900   -0.1690   -2.5570 H   0  0  0  0  0  0  0  0  0  0  0  0
    4.0980   -1.8770   -2.0650 H   0  0  0  0  0  0  0  0  0  0  0  0
    0.6360    1.9660    3.3720 H   0  0  0  0  0  0  0  0  0  0  0  0
   -1.8830    0.8990    6.6750 H   0  0  0  0  0  0  0  0  0  0  0  0
    1.6290    3.7870    4.7150 H   0  0  0  0  0  0  0  0  0  0  0  0
   -0.8840    2.7260    8.0120 H   0  0  0  0  0  0  0  0  0  0  0  0
    0.8710    4.1680    7.0380 H   0  0  0  0  0  0  0  0  0  0  0  0
  1  3  1  0  0  0  0
  1  9  2  0  0  0  0
  1 15  1  0  0  0  0
  2  5  1  0  0  0  0
  2 10  2  0  0  0  0
  2 16  1  0  0  0  0
  3  6  1  0  0  0  0
  3 24  1  0  0  0  0
  4  7  2  0  0  0  0
  4  8  1  0  0  0  0
  4 17  1  0  0  0  0
  5 14  1  0  0  0  0
  5 25  1  0  0  0  0
  6  7  1  0  0  0  0
  6 13  2  0  0  0  0
  7 26  1  0  0  0  0
  8 11  2  0  0  0  0
  8 18  1  0  0  0  0
 11 13  1  0  0  0  0
 11 27  1  0  0  0  0
 12 15  1  0  0  0  0
 12 16  1  0  0  0  0
 13 28  1  0  0  0  0
 14 19  2  0  0  0  0
 14 20  1  0  0  0  0
 15 29  1  0  0  0  0
 15 30  1  0  0  0  0
 16 31  1  0  0  0  0
 16 32  1  0  0  0  0
 17 33  1  0  0  0  0
 17 34  1  0  0  0  0
 17 35  1  0  0  0  0
 18 36  1  0  0  0  0
 18 37  1  0  0  0  0
 18 38  1  0  0  0  0
 19 21  1  0  0  0  0
 19 39  1  0  0  0  0
 20 22  2  0  0  0  0
 20 40  1  0  0  0  0
 21 23  2  0  0  0  0
 21 41  1  0  0  0  0
 22 23  1  0  0  0  0
 22 42  1  0  0  0  0
 23 43  1  0  0  0  0
M  END
>  <$CLUSTER>
736

>  <INDEX>
67812

$$$$
Life Chemicals F0497-0082
  MOE2020           3D

 53 56  0  0  1  0  0  0  0  0999 V2000
   -0.5490   -0.0700   -1.2750 C   0  0  0  0  0  0  0  0  0  0  0  0
   -2.2600    0.1830    0.9500 C   0  0  0  0  0  0  0  0  0  0  0  0
   -1.0530    0.8300    0.9640 N   0  0  0  0  0  0  0  0  0  0  0  0
   -0.0410    0.7560   -0.0950 C   0  0  3  0  0  0  0  0  0  0  0  0
   -1.7620   -0.6710   -1.2540 C   0  0  0  0  0  0  0  0  0  0  0  0
    0.3410   -0.1320   -2.4550 C   0  0  0  0  0  0  0  0  0  0  0  0
   -2.5830   -0.5560   -0.1340 N   0  0  0  0  0  0  0  0  0  0  0  0
   -2.9020    0.4470    2.0650 N   0  0  0  0  0  0  0  0  0  0  0  0
    1.2680    0.2270    0.4690 C   0  0  0  0  0  0  0  0  0  0  0  0
   -0.8990    1.5660    2.0780 N   0  0  0  0  0  0  0  0  0  0  0  0
   -2.0410    1.2890    2.7150 C   0  0  0  0  0  0  0  0  0  0  0  0
    0.7990   -1.3980   -2.7410 N   0  0  0  0  0  0  0  0  0  0  0  0
    2.4240    1.0200    0.4090 C   0  0  0  0  0  0  0  0  0  0  0  0
    3.6370    0.5470    0.9120 C   0  0  0  0  0  0  0  0  0  0  0  0
    0.6640    0.8800   -3.0650 O   0  0  0  0  0  0  0  0  0  0  0  0
    1.3580   -1.0540    1.0410 C   0  0  0  0  0  0  0  0  0  0  0  0
    3.7110   -0.7240    1.4780 C   0  0  0  0  0  0  0  0  0  0  0  0
    2.5730   -1.5240    1.5430 C   0  0  0  0  0  0  0  0  0  0  0  0
    1.6510   -1.8510   -3.7620 C   0  0  0  0  0  0  0  0  0  0  0  0
   -2.3560   -1.4500   -2.3970 C   0  0  0  0  0  0  0  0  0  0  0  0
    4.8130    1.2710    0.8890 O   0  0  0  0  0  0  0  0  0  0  0  0
    3.3480   -2.8860   -5.7490 C   0  0  0  0  0  0  0  0  0  0  0  0
    2.2330   -1.0030   -4.7090 C   0  0  0  0  0  0  0  0  0  0  0  0
    1.9310   -3.2250   -3.8240 C   0  0  0  0  0  0  0  0  0  0  0  0
    4.9510   -1.1050    1.9460 O   0  0  0  0  0  0  0  0  0  0  0  0
    2.7740   -3.7390   -4.8110 C   0  0  0  0  0  0  0  0  0  0  0  0
    3.0770   -1.5210   -5.6980 C   0  0  0  0  0  0  0  0  0  0  0  0
    4.2490   -3.4340   -6.8060 C   0  0  0  0  0  0  0  0  0  0  0  0
    4.7740    2.5740    0.3170 C   0  0  0  0  0  0  0  0  0  0  0  0
    5.0630   -2.3960    2.5300 C   0  0  0  0  0  0  0  0  0  0  0  0
    0.1520    1.7580   -0.4780 H   0  0  0  0  0  0  0  0  0  0  0  0
   -3.4640   -1.0500   -0.1320 H   0  0  0  0  0  0  0  0  0  0  0  0
   -2.2710    1.7050    3.6850 H   0  0  0  0  0  0  0  0  0  0  0  0
    0.4690   -2.1190   -2.1150 H   0  0  0  0  0  0  0  0  0  0  0  0
    2.3750    2.0050   -0.0300 H   0  0  0  0  0  0  0  0  0  0  0  0
    0.4790   -1.6800    1.0930 H   0  0  0  0  0  0  0  0  0  0  0  0
    2.6300   -2.5090    1.9820 H   0  0  0  0  0  0  0  0  0  0  0  0
   -3.3390   -1.8240   -2.1100 H   0  0  0  0  0  0  0  0  0  0  0  0
   -1.7050   -2.2900   -2.6410 H   0  0  0  0  0  0  0  0  0  0  0  0
   -2.4540   -0.8010   -3.2670 H   0  0  0  0  0  0  0  0  0  0  0  0
    2.0300    0.0570   -4.6770 H   0  0  0  0  0  0  0  0  0  0  0  0
    1.4890   -3.8930   -3.0990 H   0  0  0  0  0  0  0  0  0  0  0  0
    2.9810   -4.7980   -4.8470 H   0  0  0  0  0  0  0  0  0  0  0  0
    3.5210   -0.8580   -6.4260 H   0  0  0  0  0  0  0  0  0  0  0  0
    4.3390   -4.5130   -6.6830 H   0  0  0  0  0  0  0  0  0  0  0  0
    5.2340   -2.9750   -6.7180 H   0  0  0  0  0  0  0  0  0  0  0  0
    3.8320   -3.2130   -7.7890 H   0  0  0  0  0  0  0  0  0  0  0  0
    5.7660    3.0230    0.3680 H   0  0  0  0  0  0  0  0  0  0  0  0
    4.0670    3.1920    0.8700 H   0  0  0  0  0  0  0  0  0  0  0  0
    4.4590    2.5040   -0.7240 H   0  0  0  0  0  0  0  0  0  0  0  0
    6.0910   -2.5610    2.8530 H   0  0  0  0  0  0  0  0  0  0  0  0
    4.7870   -3.1520    1.7950 H   0  0  0  0  0  0  0  0  0  0  0  0
    4.3970   -2.4650    3.3900 H   0  0  0  0  0  0  0  0  0  0  0  0
  1  4  1  0  0  0  0
  1  5  2  0  0  0  0
  1  6  1  0  0  0  0
  2  3  1  0  0  0  0
  2  7  1  0  0  0  0
  2  8  2  0  0  0  0
  3  4  1  0  0  0  0
  3 10  1  0  0  0  0
  4  9  1  0  0  0  0
  4 31  1  0  0  0  0
  5  7  1  0  0  0  0
  5 20  1  0  0  0  0
  6 12  1  0  0  0  0
  6 15  2  0  0  0  0
  7 32  1  0  0  0  0
  8 11  1  0  0  0  0
  9 13  2  0  0  0  0
  9 16  1  0  0  0  0
 10 11  2  0  0  0  0
 11 33  1  0  0  0  0
 12 19  1  0  0  0  0
 12 34  1  0  0  0  0
 13 14  1  0  0  0  0
 13 35  1  0  0  0  0
 14 17  2  0  0  0  0
 14 21  1  0  0  0  0
 16 18  2  0  0  0  0
 16 36  1  0  0  0  0
 17 18  1  0  0  0  0
 17 25  1  0  0  0  0
 18 37  1  0  0  0  0
 19 23  1  0  0  0  0
 19 24  2  0  0  0  0
 20 38  1  0  0  0  0
 20 39  1  0  0  0  0
 20 40  1  0  0  0  0
 21 29  1  0  0  0  0
 22 26  2  0  0  0  0
 22 27  1  0  0  0  0
 22 28  1  0  0  0  0
 23 27  2  0  0  0  0
 23 41  1  0  0  0  0
 24 26  1  0  0  0  0
 24 42  1  0  0  0  0
 25 30  1  0  0  0  0
 26 43  1  0  0  0  0
 27 44  1  0  0  0  0
 28 45  1  0  0  0  0
 28 46  1  0  0  0  0
 28 47  1  0  0  0  0
 29 48  1  0  0  0  0
 29 49  1  0  0  0  0
 29 50  1  0  0  0  0
 30 51  1  0  0  0  0
 30 52  1  0  0  0  0
 30 53  1  0  0  0  0
M  END
>  <$CLUSTER>
737

>  <INDEX>
271154

$$$$
Otava 7119692092
  MOE2020           3D

 57 59  0  0  0  0  0  0  0  0999 V2000
   -5.8160   -4.0710   -1.8800 C   0  0  0  0  0  0  0  0  0  0  0  0
   -5.8400   -3.4110   -0.6540 O   0  0  0  0  0  0  0  0  0  0  0  0
   -4.0060   -2.0030   -1.5160 C   0  0  0  0  0  0  0  0  0  0  0  0
   -4.9590   -2.3800   -0.4220 C   0  0  0  0  0  0  0  0  0  0  0  0
   -4.0270   -2.6870   -2.6750 C   0  0  0  0  0  0  0  0  0  0  0  0
   -4.9750   -3.7610   -2.8640 C   0  0  0  0  0  0  0  0  0  0  0  0
   -6.8300   -5.1510   -1.9690 C   0  0  0  0  0  0  0  0  0  0  0  0
   -3.0850   -0.8460   -1.2120 C   0  0  0  0  0  0  0  0  0  0  0  0
   -5.0760   -4.5480   -4.0760 C   0  0  0  0  0  0  0  0  0  0  0  0
   -6.8850   -5.8760   -3.1630 C   0  0  0  0  0  0  0  0  0  0  0  0
   -0.8920   -0.1340   -0.1710 C   0  0  0  0  0  0  0  0  0  0  0  0
   -4.9620   -1.7890    0.6540 O   0  0  0  0  0  0  0  0  0  0  0  0
   -6.0130   -5.5760   -4.2090 C   0  0  0  0  0  0  0  0  0  0  0  0
   -1.1440    1.0230   -0.4960 O   0  0  0  0  0  0  0  0  0  0  0  0
   -1.8240   -1.2720   -0.4850 C   0  0  0  0  0  0  0  0  0  0  0  0
    0.2510   -0.5550    0.4870 N   0  0  0  0  0  0  0  0  0  0  0  0
   -3.1180   -2.4500   -3.8510 C   0  0  0  0  0  0  0  0  0  0  0  0
    3.2740    2.9060    0.0040 C   0  0  0  0  0  0  0  0  0  0  0  0
    4.2910    3.7760    0.4030 C   0  0  0  0  0  0  0  0  0  0  0  0
   -7.8240   -6.8630   -3.2180 O   0  0  0  0  0  0  0  0  0  0  0  0
   -7.7670   -5.4710   -0.8420 C   0  0  0  0  0  0  0  0  0  0  0  0
    3.4170    1.5270    0.1840 C   0  0  0  0  0  0  0  0  0  0  0  0
    1.3050    0.3550    0.8920 C   0  0  0  0  0  0  0  0  0  0  0  0
    4.2640    5.1480    0.2690 O   0  0  0  0  0  0  0  0  0  0  0  0
    5.5930    1.8990    1.1800 C   0  0  0  0  0  0  0  0  0  0  0  0
    2.3030    0.5830   -0.2280 C   0  0  0  0  0  0  0  0  0  0  0  0
    5.4500    3.2720    0.9900 C   0  0  0  0  0  0  0  0  0  0  0  0
    4.5780    1.0270    0.7820 C   0  0  0  0  0  0  0  0  0  0  0  0
   -7.9140   -7.6270   -4.4150 C   0  0  0  0  0  0  0  0  0  0  0  0
    3.1030    5.7160   -0.3260 C   0  0  0  0  0  0  0  0  0  0  0  0
   -3.6200   -0.1290   -0.5890 H   0  0  0  0  0  0  0  0  0  0  0  0
   -2.8020   -0.3710   -2.1510 H   0  0  0  0  0  0  0  0  0  0  0  0
   -4.4090   -4.3350   -4.8990 H   0  0  0  0  0  0  0  0  0  0  0  0
   -6.0620   -6.1420   -5.1280 H   0  0  0  0  0  0  0  0  0  0  0  0
   -1.2920   -1.9890   -1.1100 H   0  0  0  0  0  0  0  0  0  0  0  0
   -2.1120   -1.7490    0.4520 H   0  0  0  0  0  0  0  0  0  0  0  0
    0.3550   -1.5380    0.6940 H   0  0  0  0  0  0  0  0  0  0  0  0
   -3.3640   -3.1520   -4.6480 H   0  0  0  0  0  0  0  0  0  0  0  0
   -2.0820   -2.5960   -3.5450 H   0  0  0  0  0  0  0  0  0  0  0  0
   -3.2490   -1.4300   -4.2120 H   0  0  0  0  0  0  0  0  0  0  0  0
    2.3740    3.3000   -0.4450 H   0  0  0  0  0  0  0  0  0  0  0  0
   -7.5700   -4.8020   -0.0050 H   0  0  0  0  0  0  0  0  0  0  0  0
   -7.6160   -6.5030   -0.5260 H   0  0  0  0  0  0  0  0  0  0  0  0
   -8.7960   -5.3410   -1.1770 H   0  0  0  0  0  0  0  0  0  0  0  0
    1.8270   -0.0670    1.7510 H   0  0  0  0  0  0  0  0  0  0  0  0
    0.8600    1.3110    1.1700 H   0  0  0  0  0  0  0  0  0  0  0  0
    6.4910    1.5090    1.6360 H   0  0  0  0  0  0  0  0  0  0  0  0
    2.7400   -0.3750   -0.5100 H   0  0  0  0  0  0  0  0  0  0  0  0
    1.7800    1.0090   -1.0840 H   0  0  0  0  0  0  0  0  0  0  0  0
    6.2370    3.9450    1.2970 H   0  0  0  0  0  0  0  0  0  0  0  0
    4.6900   -0.0360    0.9360 H   0  0  0  0  0  0  0  0  0  0  0  0
   -8.7030   -8.3720   -4.3120 H   0  0  0  0  0  0  0  0  0  0  0  0
   -6.9630   -8.1270   -4.5990 H   0  0  0  0  0  0  0  0  0  0  0  0
   -8.1450   -6.9670   -5.2510 H   0  0  0  0  0  0  0  0  0  0  0  0
    3.2110    6.8000   -0.3710 H   0  0  0  0  0  0  0  0  0  0  0  0
    2.2270    5.4630    0.2720 H   0  0  0  0  0  0  0  0  0  0  0  0
    2.9810    5.3210   -1.3340 H   0  0  0  0  0  0  0  0  0  0  0  0
  1  2  1  0  0  0  0
  1  6  2  0  0  0  0
  1  7  1  0  0  0  0
  2  4  1  0  0  0  0
  3  4  1  0  0  0  0
  3  5  2  0  0  0  0
  3  8  1  0  0  0  0
  4 12  2  0  0  0  0
  5  6  1  0  0  0  0
  5 17  1  0  0  0  0
  6  9  1  0  0  0  0
  7 10  2  0  0  0  0
  7 21  1  0  0  0  0
  8 15  1  0  0  0  0
  8 31  1  0  0  0  0
  8 32  1  0  0  0  0
  9 13  2  0  0  0  0
  9 33  1  0  0  0  0
 10 13  1  0  0  0  0
 10 20  1  0  0  0  0
 11 14  2  0  0  0  0
 11 15  1  0  0  0  0
 11 16  1  0  0  0  0
 13 34  1  0  0  0  0
 15 35  1  0  0  0  0
 15 36  1  0  0  0  0
 16 23  1  0  0  0  0
 16 37  1  0  0  0  0
 17 38  1  0  0  0  0
 17 39  1  0  0  0  0
 17 40  1  0  0  0  0
 18 19  2  0  0  0  0
 18 22  1  0  0  0  0
 18 41  1  0  0  0  0
 19 24  1  0  0  0  0
 19 27  1  0  0  0  0
 20 29  1  0  0  0  0
 21 42  1  0  0  0  0
 21 43  1  0  0  0  0
 21 44  1  0  0  0  0
 22 26  1  0  0  0  0
 22 28  2  0  0  0  0
 23 26  1  0  0  0  0
 23 45  1  0  0  0  0
 23 46  1  0  0  0  0
 24 30  1  0  0  0  0
 25 27  2  0  0  0  0
 25 28  1  0  0  0  0
 25 47  1  0  0  0  0
 26 48  1  0  0  0  0
 26 49  1  0  0  0  0
 27 50  1  0  0  0  0
 28 51  1  0  0  0  0
 29 52  1  0  0  0  0
 29 53  1  0  0  0  0
 29 54  1  0  0  0  0
 30 55  1  0  0  0  0
 30 56  1  0  0  0  0
 30 57  1  0  0  0  0
M  END
>  <$CLUSTER>
738

>  <INDEX>
484051

$$$$
Life Chemicals F1790-0059
  MOE2020           3D

 43 46  0  0  0  0  0  0  0  0999 V2000
   -2.8490    1.9210    1.0740 C   0  0  0  0  0  0  0  0  0  0  0  0
   -3.0910    3.1100    1.7170 N   0  0  0  0  0  0  0  0  0  0  0  0
   -1.5060    1.7870    0.7580 C   0  0  0  0  0  0  0  0  0  0  0  0
   -4.1340    0.8340    0.7760 S   0  0  0  0  0  0  0  0  0  0  0  0
   -0.9010    2.9370    1.2300 O   0  0  0  0  0  0  0  0  0  0  0  0
   -1.9060    3.6610    1.7790 C   0  0  0  0  0  0  0  0  0  0  0  0
   -0.7530    0.9410    0.1890 N   0  0  0  0  0  0  0  0  0  0  0  0
   -5.5620    1.5790    1.5130 C   0  0  0  0  0  0  0  0  0  0  0  0
   -4.2960    0.8450   -0.6620 O   0  0  0  0  0  0  0  0  0  0  0  0
   -3.7930   -0.3540    1.5280 O   0  0  0  0  0  0  0  0  0  0  0  0
   -1.5290    4.9550    2.3640 C   0  0  0  0  0  0  0  0  0  0  0  0
   -6.0610    1.0810    2.6960 C   0  0  0  0  0  0  0  0  0  0  0  0
   -6.1480    2.6570    0.8500 C   0  0  0  0  0  0  0  0  0  0  0  0
   -0.2040    5.4160    2.3540 C   0  0  0  0  0  0  0  0  0  0  0  0
   -2.5130    5.7630    2.9520 C   0  0  0  0  0  0  0  0  0  0  0  0
   -0.8620    7.4420    3.4990 C   0  0  0  0  0  0  0  0  0  0  0  0
   -7.8080    2.7530    2.6050 C   0  0  0  0  0  0  0  0  0  0  0  0
    0.1260    6.6520    2.9190 C   0  0  0  0  0  0  0  0  0  0  0  0
   -7.2840    3.2430    1.4080 C   0  0  0  0  0  0  0  0  0  0  0  0
   -7.1970    1.6740    3.2460 C   0  0  0  0  0  0  0  0  0  0  0  0
   -2.1820    6.9980    3.5160 C   0  0  0  0  0  0  0  0  0  0  0  0
   -9.1940    3.4820    3.2720 Cl  0  0  0  0  0  0  0  0  0  0  0  0
   -0.4630    8.6060    4.0120 F   0  0  0  0  0  0  0  0  0  0  0  0
    0.6970    1.0310    0.0460 C   0  0  0  0  0  0  0  0  0  0  0  0
   -1.1110   -0.3120   -0.4700 C   0  0  0  0  0  0  0  0  0  0  0  0
   -0.0120   -1.2720   -0.0520 C   0  0  0  0  0  0  0  0  0  0  0  0
    1.1780   -0.3880    0.2870 C   0  0  0  0  0  0  0  0  0  0  0  0
   -5.5820    0.2480    3.1880 H   0  0  0  0  0  0  0  0  0  0  0  0
   -5.7320    3.0290   -0.0740 H   0  0  0  0  0  0  0  0  0  0  0  0
    0.5690    4.8100    1.9050 H   0  0  0  0  0  0  0  0  0  0  0  0
   -3.5390    5.4270    2.9690 H   0  0  0  0  0  0  0  0  0  0  0  0
    1.1500    6.9940    2.9050 H   0  0  0  0  0  0  0  0  0  0  0  0
   -7.7590    4.0770    0.9130 H   0  0  0  0  0  0  0  0  0  0  0  0
   -7.6060    1.2970    4.1720 H   0  0  0  0  0  0  0  0  0  0  0  0
   -2.9510    7.6090    3.9660 H   0  0  0  0  0  0  0  0  0  0  0  0
    1.1180    1.7130    0.7850 H   0  0  0  0  0  0  0  0  0  0  0  0
    0.9680    1.3670   -0.9550 H   0  0  0  0  0  0  0  0  0  0  0  0
   -1.1280   -0.1900   -1.5530 H   0  0  0  0  0  0  0  0  0  0  0  0
   -2.0840   -0.6650   -0.1290 H   0  0  0  0  0  0  0  0  0  0  0  0
    0.2350   -1.9500   -0.8690 H   0  0  0  0  0  0  0  0  0  0  0  0
   -0.3200   -1.8500    0.8190 H   0  0  0  0  0  0  0  0  0  0  0  0
    1.4700   -0.5220    1.3290 H   0  0  0  0  0  0  0  0  0  0  0  0
    2.0240   -0.6200   -0.3600 H   0  0  0  0  0  0  0  0  0  0  0  0
  1  2  1  0  0  0  0
  1  3  2  0  0  0  0
  1  4  1  0  0  0  0
  2  6  2  0  0  0  0
  3  5  1  0  0  0  0
  3  7  1  0  0  0  0
  4  8  1  0  0  0  0
  4  9  2  0  0  0  0
  4 10  2  0  0  0  0
  5  6  1  0  0  0  0
  6 11  1  0  0  0  0
  7 24  1  0  0  0  0
  7 25  1  0  0  0  0
  8 12  1  0  0  0  0
  8 13  2  0  0  0  0
 11 14  2  0  0  0  0
 11 15  1  0  0  0  0
 12 20  2  0  0  0  0
 12 28  1  0  0  0  0
 13 19  1  0  0  0  0
 13 29  1  0  0  0  0
 14 18  1  0  0  0  0
 14 30  1  0  0  0  0
 15 21  2  0  0  0  0
 15 31  1  0  0  0  0
 16 18  2  0  0  0  0
 16 21  1  0  0  0  0
 16 23  1  0  0  0  0
 17 19  2  0  0  0  0
 17 20  1  0  0  0  0
 17 22  1  0  0  0  0
 18 32  1  0  0  0  0
 19 33  1  0  0  0  0
 20 34  1  0  0  0  0
 21 35  1  0  0  0  0
 24 27  1  0  0  0  0
 24 36  1  0  0  0  0
 24 37  1  0  0  0  0
 25 26  1  0  0  0  0
 25 38  1  0  0  0  0
 25 39  1  0  0  0  0
 26 27  1  0  0  0  0
 26 40  1  0  0  0  0
 26 41  1  0  0  0  0
 27 42  1  0  0  0  0
 27 43  1  0  0  0  0
M  END
>  <$CLUSTER>
739

>  <INDEX>
296564

$$$$
Toslab 787032
  MOE2020           3D

 39 41  0  0  0  0  0  0  0  0999 V2000
   -0.1020    0.3460    0.7960 N   0  0  0  0  0  0  0  0  0  0  0  0
   -1.3100    0.1790    0.1320 C   0  0  0  0  0  0  0  0  0  0  0  0
    1.1950    0.0450    0.3740 C   0  0  0  0  0  0  0  0  0  0  0  0
   -0.2800    0.8850    2.0310 N   0  0  0  0  0  0  0  0  0  0  0  0
    1.4620   -0.4760   -0.8000 N   0  0  0  0  0  0  0  0  0  0  0  0
    2.8270   -0.6520   -0.9120 C   0  0  0  0  0  0  0  0  0  0  0  0
   -2.2860    0.6360    0.9940 C   0  0  0  0  0  0  0  0  0  0  0  0
   -1.5960    1.0540    2.1370 C   0  0  0  0  0  0  0  0  0  0  0  0
   -1.4580   -0.3820   -1.2300 C   0  0  0  0  0  0  0  0  0  0  0  0
    3.4160   -1.2220   -2.1290 C   0  0  0  0  0  0  0  0  0  0  0  0
    2.5300    0.3510    1.3960 S   0  0  0  0  0  0  0  0  0  0  0  0
    3.5730   -0.2610    0.1800 C   0  0  0  0  0  0  0  0  0  0  0  0
    2.4930   -1.5450   -3.0990 N   0  0  0  0  0  0  0  0  0  0  0  0
   -2.1750    1.6350    3.3800 C   0  0  0  0  0  0  0  0  0  0  0  0
    2.8890   -2.0860   -4.2940 N   0  0  0  0  0  0  0  0  0  0  0  0
    2.5490   -1.4470   -5.4690 C   0  0  0  0  0  0  0  0  0  0  0  0
    4.6240   -1.3950   -2.2690 O   0  0  0  0  0  0  0  0  0  0  0  0
    1.8760   -0.4230   -5.5580 O   0  0  0  0  0  0  0  0  0  0  0  0
   -0.8020    0.3530   -2.1630 F   0  0  0  0  0  0  0  0  0  0  0  0
   -2.7590   -0.4250   -1.6210 F   0  0  0  0  0  0  0  0  0  0  0  0
   -0.9920   -1.6540   -1.3150 F   0  0  0  0  0  0  0  0  0  0  0  0
   -3.5480    1.9140    3.4680 C   0  0  0  0  0  0  0  0  0  0  0  0
   -1.3660    1.9170    4.4930 C   0  0  0  0  0  0  0  0  0  0  0  0
   -3.2780    2.7320    5.7290 C   0  0  0  0  0  0  0  0  0  0  0  0
   -4.0940    2.4580    4.6350 C   0  0  0  0  0  0  0  0  0  0  0  0
   -1.9140    2.4610    5.6580 C   0  0  0  0  0  0  0  0  0  0  0  0
   -3.8730    3.2490    6.8020 F   0  0  0  0  0  0  0  0  0  0  0  0
    3.0680   -2.1630   -6.6860 C   0  0  0  0  0  0  0  0  0  0  0  0
   -3.3520    0.6650    0.8230 H   0  0  0  0  0  0  0  0  0  0  0  0
    4.6480   -0.3300    0.2570 H   0  0  0  0  0  0  0  0  0  0  0  0
    1.5110   -1.3810   -2.9270 H   0  0  0  0  0  0  0  0  0  0  0  0
    3.4240   -2.9430   -4.3150 H   0  0  0  0  0  0  0  0  0  0  0  0
   -4.1900    1.7060    2.6250 H   0  0  0  0  0  0  0  0  0  0  0  0
   -0.3070    1.7110    4.4480 H   0  0  0  0  0  0  0  0  0  0  0  0
   -5.1520    2.6660    4.6880 H   0  0  0  0  0  0  0  0  0  0  0  0
   -1.2780    2.6720    6.5050 H   0  0  0  0  0  0  0  0  0  0  0  0
    3.6360   -3.0400   -6.3770 H   0  0  0  0  0  0  0  0  0  0  0  0
    3.7140   -1.4930   -7.2530 H   0  0  0  0  0  0  0  0  0  0  0  0
    2.2300   -2.4740   -7.3100 H   0  0  0  0  0  0  0  0  0  0  0  0
  1  2  1  0  0  0  0
  1  3  1  0  0  0  0
  1  4  1  0  0  0  0
  2  7  2  0  0  0  0
  2  9  1  0  0  0  0
  3  5  2  0  0  0  0
  3 11  1  0  0  0  0
  4  8  2  0  0  0  0
  5  6  1  0  0  0  0
  6 10  1  0  0  0  0
  6 12  2  0  0  0  0
  7  8  1  0  0  0  0
  7 29  1  0  0  0  0
  8 14  1  0  0  0  0
  9 19  1  0  0  0  0
  9 20  1  0  0  0  0
  9 21  1  0  0  0  0
 10 13  1  0  0  0  0
 10 17  2  0  0  0  0
 11 12  1  0  0  0  0
 12 30  1  0  0  0  0
 13 15  1  0  0  0  0
 13 31  1  0  0  0  0
 14 22  2  0  0  0  0
 14 23  1  0  0  0  0
 15 16  1  0  0  0  0
 15 32  1  0  0  0  0
 16 18  2  0  0  0  0
 16 28  1  0  0  0  0
 22 25  1  0  0  0  0
 22 33  1  0  0  0  0
 23 26  2  0  0  0  0
 23 34  1  0  0  0  0
 24 25  2  0  0  0  0
 24 26  1  0  0  0  0
 24 27  1  0  0  0  0
 25 35  1  0  0  0  0
 26 36  1  0  0  0  0
 28 37  1  0  0  0  0
 28 38  1  0  0  0  0
 28 39  1  0  0  0  0
M  END
>  <$CLUSTER>
740

>  <INDEX>
485469

$$$$
InterBioScreen STOCK4S-31832
  MOE2020           3D

 46 49  0  0  0  0  0  0  0  0999 V2000
   -0.3510    0.1460    0.3740 N   0  0  0  0  0  0  0  0  0  0  0  0
    1.9740   -0.3980   -0.1680 C   0  0  0  0  0  0  0  0  0  0  0  0
    0.0610    0.8840    1.5090 C   0  0  0  0  0  0  0  0  0  0  0  0
    0.5230   -0.6430   -0.4070 C   0  0  0  0  0  0  0  0  0  0  0  0
    1.3970    0.7180    1.8690 N   0  0  0  0  0  0  0  0  0  0  0  0
    2.4060    0.0910    1.1620 C   0  0  0  0  0  0  0  0  0  0  0  0
    2.8910   -0.6100   -1.1410 C   0  0  0  0  0  0  0  0  0  0  0  0
    4.2470   -0.4440   -0.9890 N   0  0  0  0  0  0  0  0  0  0  0  0
   -1.7520    0.1710    0.0010 C   0  0  0  0  0  0  0  0  0  0  0  0
   -0.6420    1.6670    2.1540 O   0  0  0  0  0  0  0  0  0  0  0  0
    0.1610   -1.5490   -1.1560 O   0  0  0  0  0  0  0  0  0  0  0  0
    3.5460   -0.0270    1.6040 O   0  0  0  0  0  0  0  0  0  0  0  0
    7.8110   -0.7220   -1.9840 C   0  0  0  0  0  0  0  0  0  0  0  0
    5.4020   -0.3590   -1.7530 C   0  0  0  0  0  0  0  0  0  0  0  0
    6.6460   -0.7350   -1.2120 C   0  0  0  0  0  0  0  0  0  0  0  0
    7.7560   -0.3320   -3.3180 C   0  0  0  0  0  0  0  0  0  0  0  0
    6.5360    0.0430   -3.8740 C   0  0  0  0  0  0  0  0  0  0  0  0
    5.3710    0.0270   -3.0990 C   0  0  0  0  0  0  0  0  0  0  0  0
    2.5120   -1.0060   -2.5550 C   0  0  0  0  0  0  0  0  0  0  0  0
    9.1820   -1.1170   -1.5980 C   0  0  0  0  0  0  0  0  0  0  0  0
    9.9940   -0.4780   -2.7280 C   0  0  0  0  0  0  0  0  0  0  0  0
    9.0790   -0.4280   -3.9540 C   0  0  0  0  0  0  0  0  0  0  0  0
   -2.7690    0.2200    0.9690 C   0  0  0  0  0  0  0  0  0  0  0  0
   -2.1330    0.1440   -1.3520 C   0  0  0  0  0  0  0  0  0  0  0  0
   -4.1170    0.2450    0.5970 C   0  0  0  0  0  0  0  0  0  0  0  0
   -3.4810    0.1710   -1.7220 C   0  0  0  0  0  0  0  0  0  0  0  0
   -4.4730    0.2210   -0.7480 C   0  0  0  0  0  0  0  0  0  0  0  0
    1.6630    1.1060    2.7630 H   0  0  0  0  0  0  0  0  0  0  0  0
    4.4750   -0.3560   -0.0090 H   0  0  0  0  0  0  0  0  0  0  0  0
    6.7010   -1.0400   -0.1780 H   0  0  0  0  0  0  0  0  0  0  0  0
    6.4880    0.3480   -4.9090 H   0  0  0  0  0  0  0  0  0  0  0  0
    4.4320    0.3170   -3.5460 H   0  0  0  0  0  0  0  0  0  0  0  0
    3.4150   -1.1190   -3.1550 H   0  0  0  0  0  0  0  0  0  0  0  0
    1.8800   -0.2330   -2.9920 H   0  0  0  0  0  0  0  0  0  0  0  0
    1.9680   -1.9510   -2.5340 H   0  0  0  0  0  0  0  0  0  0  0  0
    9.4580   -0.7090   -0.6260 H   0  0  0  0  0  0  0  0  0  0  0  0
    9.2980   -2.2010   -1.5840 H   0  0  0  0  0  0  0  0  0  0  0  0
   10.3010    0.5300   -2.4470 H   0  0  0  0  0  0  0  0  0  0  0  0
   10.8770   -1.0800   -2.9430 H   0  0  0  0  0  0  0  0  0  0  0  0
    9.1680   -1.3320   -4.5560 H   0  0  0  0  0  0  0  0  0  0  0  0
    9.2890    0.4440   -4.5740 H   0  0  0  0  0  0  0  0  0  0  0  0
   -2.5060    0.2390    2.0160 H   0  0  0  0  0  0  0  0  0  0  0  0
   -1.3720    0.1020   -2.1180 H   0  0  0  0  0  0  0  0  0  0  0  0
   -4.8840    0.2830    1.3560 H   0  0  0  0  0  0  0  0  0  0  0  0
   -3.7530    0.1530   -2.7670 H   0  0  0  0  0  0  0  0  0  0  0  0
   -5.5140    0.2410   -1.0340 H   0  0  0  0  0  0  0  0  0  0  0  0
  1  3  1  0  0  0  0
  1  4  1  0  0  0  0
  1  9  1  0  0  0  0
  2  4  1  0  0  0  0
  2  6  1  0  0  0  0
  2  7  2  0  0  0  0
  3  5  1  0  0  0  0
  3 10  2  0  0  0  0
  4 11  2  0  0  0  0
  5  6  1  0  0  0  0
  5 28  1  0  0  0  0
  6 12  2  0  0  0  0
  7  8  1  0  0  0  0
  7 19  1  0  0  0  0
  8 14  1  0  0  0  0
  8 29  1  0  0  0  0
  9 23  2  0  0  0  0
  9 24  1  0  0  0  0
 13 15  2  0  0  0  0
 13 16  1  0  0  0  0
 13 20  1  0  0  0  0
 14 15  1  0  0  0  0
 14 18  2  0  0  0  0
 15 30  1  0  0  0  0
 16 17  2  0  0  0  0
 16 22  1  0  0  0  0
 17 18  1  0  0  0  0
 17 31  1  0  0  0  0
 18 32  1  0  0  0  0
 19 33  1  0  0  0  0
 19 34  1  0  0  0  0
 19 35  1  0  0  0  0
 20 21  1  0  0  0  0
 20 36  1  0  0  0  0
 20 37  1  0  0  0  0
 21 22  1  0  0  0  0
 21 38  1  0  0  0  0
 21 39  1  0  0  0  0
 22 40  1  0  0  0  0
 22 41  1  0  0  0  0
 23 25  1  0  0  0  0
 23 42  1  0  0  0  0
 24 26  2  0  0  0  0
 24 43  1  0  0  0  0
 25 27  2  0  0  0  0
 25 44  1  0  0  0  0
 26 27  1  0  0  0  0
 26 45  1  0  0  0  0
 27 46  1  0  0  0  0
M  END
>  <$CLUSTER>
741

>  <INDEX>
353677

$$$$
Chembridge 9014479
  MOE2020           3D

 40 42  0  0  1  0  0  0  0  0999 V2000
    1.6260    0.0260   -0.1900 N   0  0  0  0  0  0  0  0  0  0  0  0
    2.2610    0.3720    0.9690 C   0  0  0  0  0  0  0  0  0  0  0  0
   -0.3480    1.3280    0.5000 C   0  0  0  0  0  0  0  0  0  0  0  0
    0.2610    0.4040   -0.5590 C   0  0  3  0  0  0  0  0  0  0  0  0
    3.4600   -0.1660    0.9510 N   0  0  0  0  0  0  0  0  0  0  0  0
    0.3250    1.6510    1.6300 C   0  0  0  0  0  0  0  0  0  0  0  0
    1.6090    1.1550    1.8530 N   0  0  0  0  0  0  0  0  0  0  0  0
    2.4360   -0.7090   -0.9640 N   0  0  0  0  0  0  0  0  0  0  0  0
    3.5530   -0.8330   -0.2550 N   0  0  0  0  0  0  0  0  0  0  0  0
   -0.5760   -0.8400   -0.8050 C   0  0  0  0  0  0  0  0  0  0  0  0
   -1.7120    1.8320    0.2600 C   0  0  0  0  0  0  0  0  0  0  0  0
   -1.1170   -1.0750   -2.0790 C   0  0  0  0  0  0  0  0  0  0  0  0
   -2.6340    1.7880    1.0610 O   0  0  0  0  0  0  0  0  0  0  0  0
   -1.8050    2.3440   -0.9900 O   0  0  0  0  0  0  0  0  0  0  0  0
   -1.8930   -2.2100   -2.3230 C   0  0  0  0  0  0  0  0  0  0  0  0
   -0.1900    2.5700    2.7070 C   0  0  0  0  0  0  0  0  0  0  0  0
   -0.8330   -1.7690    0.2170 C   0  0  0  0  0  0  0  0  0  0  0  0
   -2.3580   -2.3120   -3.6180 O   0  0  0  0  0  0  0  0  0  0  0  0
   -1.6090   -2.9020   -0.0300 C   0  0  0  0  0  0  0  0  0  0  0  0
   -2.1390   -3.1220   -1.3000 C   0  0  0  0  0  0  0  0  0  0  0  0
   -3.1590   -3.4500   -3.9300 C   0  0  0  0  0  0  0  0  0  0  0  0
   -3.0800    2.8750   -1.3760 C   0  0  0  0  0  0  0  0  0  0  0  0
   -3.5560   -3.3560   -5.3930 C   0  0  0  0  0  0  0  0  0  0  0  0
    0.2800    0.9690   -1.4910 H   0  0  0  0  0  0  0  0  0  0  0  0
    2.0730    1.3930    2.7180 H   0  0  0  0  0  0  0  0  0  0  0  0
   -0.9310   -0.3720   -2.8770 H   0  0  0  0  0  0  0  0  0  0  0  0
    0.5530    2.6530    3.5000 H   0  0  0  0  0  0  0  0  0  0  0  0
   -1.1150    2.1660    3.1180 H   0  0  0  0  0  0  0  0  0  0  0  0
   -0.3810    3.5560    2.2830 H   0  0  0  0  0  0  0  0  0  0  0  0
   -0.4260   -1.6050    1.2040 H   0  0  0  0  0  0  0  0  0  0  0  0
   -1.7990   -3.6090    0.7640 H   0  0  0  0  0  0  0  0  0  0  0  0
   -2.7400   -3.9990   -1.4910 H   0  0  0  0  0  0  0  0  0  0  0  0
   -4.0510   -3.4570   -3.3040 H   0  0  0  0  0  0  0  0  0  0  0  0
   -2.5880   -4.3630   -3.7590 H   0  0  0  0  0  0  0  0  0  0  0  0
   -3.0220    3.2530   -2.3970 H   0  0  0  0  0  0  0  0  0  0  0  0
   -3.3540    3.6870   -0.7030 H   0  0  0  0  0  0  0  0  0  0  0  0
   -3.8330    2.0880   -1.3220 H   0  0  0  0  0  0  0  0  0  0  0  0
   -4.1260   -2.4420   -5.5570 H   0  0  0  0  0  0  0  0  0  0  0  0
   -4.1670   -4.2180   -5.6600 H   0  0  0  0  0  0  0  0  0  0  0  0
   -2.6590   -3.3410   -6.0130 H   0  0  0  0  0  0  0  0  0  0  0  0
  1  2  1  0  0  0  0
  1  4  1  0  0  0  0
  1  8  1  0  0  0  0
  2  5  2  0  0  0  0
  2  7  1  0  0  0  0
  3  4  1  0  0  0  0
  3  6  2  0  0  0  0
  3 11  1  0  0  0  0
  4 10  1  0  0  0  0
  4 24  1  0  0  0  0
  5  9  1  0  0  0  0
  6  7  1  0  0  0  0
  6 16  1  0  0  0  0
  7 25  1  0  0  0  0
  8  9  2  0  0  0  0
 10 12  2  0  0  0  0
 10 17  1  0  0  0  0
 11 13  2  0  0  0  0
 11 14  1  0  0  0  0
 12 15  1  0  0  0  0
 12 26  1  0  0  0  0
 14 22  1  0  0  0  0
 15 18  1  0  0  0  0
 15 20  2  0  0  0  0
 16 27  1  0  0  0  0
 16 28  1  0  0  0  0
 16 29  1  0  0  0  0
 17 19  2  0  0  0  0
 17 30  1  0  0  0  0
 18 21  1  0  0  0  0
 19 20  1  0  0  0  0
 19 31  1  0  0  0  0
 20 32  1  0  0  0  0
 21 23  1  0  0  0  0
 21 33  1  0  0  0  0
 21 34  1  0  0  0  0
 22 35  1  0  0  0  0
 22 36  1  0  0  0  0
 22 37  1  0  0  0  0
 23 38  1  0  0  0  0
 23 39  1  0  0  0  0
 23 40  1  0  0  0  0
M  END
>  <$CLUSTER>
742

>  <INDEX>
110513

$$$$
Toslab 825032
  MOE2020           3D

 44 47  0  0  0  0  0  0  0  0999 V2000
    1.6920   -0.2270   -1.0020 N   0  0  0  0  0  0  0  0  0  0  0  0
    3.0010   -0.0880   -0.7330 C   0  0  0  0  0  0  0  0  0  0  0  0
    3.4460    0.4000    0.4670 C   0  0  0  0  0  0  0  0  0  0  0  0
    0.8550    0.1390   -0.0120 C   0  0  0  0  0  0  0  0  0  0  0  0
    2.5760    0.7620    1.4240 N   0  0  0  0  0  0  0  0  0  0  0  0
   -0.5840    0.0300   -0.2670 C   0  0  0  0  0  0  0  0  0  0  0  0
    1.2510    0.6350    1.1820 N   0  0  0  0  0  0  0  0  0  0  0  0
    3.8730   -0.5740   -1.7680 N   0  0  0  0  0  0  0  0  0  0  0  0
   -1.4860   -0.6080    0.6080 C   0  0  0  0  0  0  0  0  0  0  0  0
   -1.1110    0.5880   -1.4490 C   0  0  0  0  0  0  0  0  0  0  0  0
   -2.8550   -0.6690    0.3150 C   0  0  0  0  0  0  0  0  0  0  0  0
    4.8220    0.7590    0.8340 C   0  0  0  0  0  0  0  0  0  0  0  0
   -3.3480   -0.1000   -0.8570 C   0  0  0  0  0  0  0  0  0  0  0  0
   -0.9620   -1.3910    2.0630 Cl  0  0  0  0  0  0  0  0  0  0  0  0
   -2.4760    0.5260   -1.7400 C   0  0  0  0  0  0  0  0  0  0  0  0
   -5.0150   -0.1770   -1.1970 Cl  0  0  0  0  0  0  0  0  0  0  0  0
    3.3660   -0.5730   -3.1350 C   0  0  0  0  0  0  0  0  0  0  0  0
    5.2030   -1.1110   -1.5370 C   0  0  0  0  0  0  0  0  0  0  0  0
    5.4970    1.8150    0.1990 C   0  0  0  0  0  0  0  0  0  0  0  0
    5.4750    0.0790    1.8750 C   0  0  0  0  0  0  0  0  0  0  0  0
    6.2090   -0.3520   -2.4260 C   0  0  0  0  0  0  0  0  0  0  0  0
    4.3610    0.1890   -4.0330 C   0  0  0  0  0  0  0  0  0  0  0  0
    6.7740    0.4270    2.2520 C   0  0  0  0  0  0  0  0  0  0  0  0
    6.7960    2.1630    0.5770 C   0  0  0  0  0  0  0  0  0  0  0  0
    7.4340    1.4670    1.6010 C   0  0  0  0  0  0  0  0  0  0  0  0
    5.7930   -0.3170   -3.8940 C   0  0  0  0  0  0  0  0  0  0  0  0
   -0.4440    1.0750   -2.1460 H   0  0  0  0  0  0  0  0  0  0  0  0
   -3.5300   -1.1590    1.0010 H   0  0  0  0  0  0  0  0  0  0  0  0
   -2.8540    0.9650   -2.6520 H   0  0  0  0  0  0  0  0  0  0  0  0
    2.3940   -0.0810   -3.1650 H   0  0  0  0  0  0  0  0  0  0  0  0
    3.2650   -1.5990   -3.4890 H   0  0  0  0  0  0  0  0  0  0  0  0
    5.2190   -2.1710   -1.7900 H   0  0  0  0  0  0  0  0  0  0  0  0
    5.4720   -0.9830   -0.4890 H   0  0  0  0  0  0  0  0  0  0  0  0
    5.0060    2.3640   -0.5910 H   0  0  0  0  0  0  0  0  0  0  0  0
    4.9670   -0.7230    2.3900 H   0  0  0  0  0  0  0  0  0  0  0  0
    7.1790   -0.8430   -2.3510 H   0  0  0  0  0  0  0  0  0  0  0  0
    6.2910    0.6720   -2.0630 H   0  0  0  0  0  0  0  0  0  0  0  0
    4.3370    1.2440   -3.7610 H   0  0  0  0  0  0  0  0  0  0  0  0
    4.0510    0.0740   -5.0720 H   0  0  0  0  0  0  0  0  0  0  0  0
    7.2670   -0.1100    3.0490 H   0  0  0  0  0  0  0  0  0  0  0  0
    7.3060    2.9720    0.0750 H   0  0  0  0  0  0  0  0  0  0  0  0
    8.4400    1.7330    1.8900 H   0  0  0  0  0  0  0  0  0  0  0  0
    5.8600   -1.3220   -4.3100 H   0  0  0  0  0  0  0  0  0  0  0  0
    6.4620    0.3470   -4.4410 H   0  0  0  0  0  0  0  0  0  0  0  0
  1  2  2  0  0  0  0
  1  4  1  0  0  0  0
  2  3  1  0  0  0  0
  2  8  1  0  0  0  0
  3  5  2  0  0  0  0
  3 12  1  0  0  0  0
  4  6  1  0  0  0  0
  4  7  2  0  0  0  0
  5  7  1  0  0  0  0
  6  9  2  0  0  0  0
  6 10  1  0  0  0  0
  8 17  1  0  0  0  0
  8 18  1  0  0  0  0
  9 11  1  0  0  0  0
  9 14  1  0  0  0  0
 10 15  2  0  0  0  0
 10 27  1  0  0  0  0
 11 13  2  0  0  0  0
 11 28  1  0  0  0  0
 12 19  1  0  0  0  0
 12 20  2  0  0  0  0
 13 15  1  0  0  0  0
 13 16  1  0  0  0  0
 15 29  1  0  0  0  0
 17 22  1  0  0  0  0
 17 30  1  0  0  0  0
 17 31  1  0  0  0  0
 18 21  1  0  0  0  0
 18 32  1  0  0  0  0
 18 33  1  0  0  0  0
 19 24  2  0  0  0  0
 19 34  1  0  0  0  0
 20 23  1  0  0  0  0
 20 35  1  0  0  0  0
 21 26  1  0  0  0  0
 21 36  1  0  0  0  0
 21 37  1  0  0  0  0
 22 26  1  0  0  0  0
 22 38  1  0  0  0  0
 22 39  1  0  0  0  0
 23 25  2  0  0  0  0
 23 40  1  0  0  0  0
 24 25  1  0  0  0  0
 24 41  1  0  0  0  0
 25 42  1  0  0  0  0
 26 43  1  0  0  0  0
 26 44  1  0  0  0  0
M  END
>  <$CLUSTER>
743

>  <INDEX>
486739

$$$$
Specs AA-504/36954121
  MOE2020           3D

 45 48  0  0  0  0  0  0  0  0999 V2000
    0.0630   -0.0440   -0.5090 C   0  0  0  0  0  0  0  0  0  0  0  0
    0.2820    0.1430   -2.1920 S   0  0  0  0  0  0  0  0  0  0  0  0
   -0.0030    1.1300    0.2030 N   0  0  0  0  0  0  0  0  0  0  0  0
   -0.0180   -1.2860   -0.0900 N   0  0  0  0  0  0  0  0  0  0  0  0
    0.0960   -2.1840   -1.1370 N   0  0  0  0  0  0  0  0  0  0  0  0
    0.2580   -1.5700   -2.2900 C   0  0  0  0  0  0  0  0  0  0  0  0
   -0.1790    1.1300    1.5770 C   0  0  0  0  0  0  0  0  0  0  0  0
   -0.2140    2.5310    2.1320 C   0  0  0  0  0  0  0  0  0  0  0  0
    3.5970   -3.1840   -5.2080 C   0  0  0  0  0  0  0  0  0  0  0  0
   -0.2850    0.1500    2.3080 O   0  0  0  0  0  0  0  0  0  0  0  0
    1.8020   -2.4190   -3.8350 O   0  0  0  0  0  0  0  0  0  0  0  0
    2.1970   -3.0490   -5.0090 C   0  0  0  0  0  0  0  0  0  0  0  0
    0.4100   -2.2670   -3.6010 C   0  0  0  0  0  0  0  0  0  0  0  0
   -0.6290    3.6370    1.4330 C   0  0  0  0  0  0  0  0  0  0  0  0
    0.1450    2.6630    3.5070 C   0  0  0  0  0  0  0  0  0  0  0  0
    4.0670   -3.8170   -6.3870 C   0  0  0  0  0  0  0  0  0  0  0  0
   -0.2870    5.0370    3.3770 C   0  0  0  0  0  0  0  0  0  0  0  0
    0.1130    3.9220    4.1100 C   0  0  0  0  0  0  0  0  0  0  0  0
   -0.6600    4.8940    2.0410 C   0  0  0  0  0  0  0  0  0  0  0  0
   -0.2870    6.2150    4.0880 O   0  0  0  0  0  0  0  0  0  0  0  0
    1.7790   -4.1600   -7.1210 C   0  0  0  0  0  0  0  0  0  0  0  0
    1.3030   -3.5390   -5.9680 C   0  0  0  0  0  0  0  0  0  0  0  0
    4.5560   -2.7140   -4.2830 C   0  0  0  0  0  0  0  0  0  0  0  0
    3.1480   -4.2980   -7.3300 C   0  0  0  0  0  0  0  0  0  0  0  0
    5.4480   -3.9600   -6.6030 C   0  0  0  0  0  0  0  0  0  0  0  0
   -0.6920    7.3890    3.3920 C   0  0  0  0  0  0  0  0  0  0  0  0
    5.9250   -2.8630   -4.5130 C   0  0  0  0  0  0  0  0  0  0  0  0
    6.3710   -3.4860   -5.6720 C   0  0  0  0  0  0  0  0  0  0  0  0
    0.0780    2.0100   -0.2850 H   0  0  0  0  0  0  0  0  0  0  0  0
   -0.0400   -1.6710   -4.3950 H   0  0  0  0  0  0  0  0  0  0  0  0
   -0.0710   -3.2440   -3.5630 H   0  0  0  0  0  0  0  0  0  0  0  0
   -0.9350    3.5340    0.4020 H   0  0  0  0  0  0  0  0  0  0  0  0
    0.4400    1.7950    4.0770 H   0  0  0  0  0  0  0  0  0  0  0  0
    0.3990    4.0310    5.1460 H   0  0  0  0  0  0  0  0  0  0  0  0
   -0.9740    5.7580    1.4740 H   0  0  0  0  0  0  0  0  0  0  0  0
    1.0820   -4.5360   -7.8560 H   0  0  0  0  0  0  0  0  0  0  0  0
    0.2390   -3.4350   -5.8140 H   0  0  0  0  0  0  0  0  0  0  0  0
    4.2230   -2.2290   -3.3780 H   0  0  0  0  0  0  0  0  0  0  0  0
    3.5060   -4.7800   -8.2280 H   0  0  0  0  0  0  0  0  0  0  0  0
    5.7990   -4.4440   -7.5030 H   0  0  0  0  0  0  0  0  0  0  0  0
   -0.6470    8.2450    4.0660 H   0  0  0  0  0  0  0  0  0  0  0  0
   -1.7130    7.2640    3.0320 H   0  0  0  0  0  0  0  0  0  0  0  0
   -0.0260    7.5570    2.5450 H   0  0  0  0  0  0  0  0  0  0  0  0
    6.6370   -2.4940   -3.7900 H   0  0  0  0  0  0  0  0  0  0  0  0
    7.4300   -3.6030   -5.8510 H   0  0  0  0  0  0  0  0  0  0  0  0
  1  2  1  0  0  0  0
  1  3  1  0  0  0  0
  1  4  2  0  0  0  0
  2  6  1  0  0  0  0
  3  7  1  0  0  0  0
  3 29  1  0  0  0  0
  4  5  1  0  0  0  0
  5  6  2  0  0  0  0
  6 13  1  0  0  0  0
  7  8  1  0  0  0  0
  7 10  2  0  0  0  0
  8 14  1  0  0  0  0
  8 15  2  0  0  0  0
  9 12  2  0  0  0  0
  9 16  1  0  0  0  0
  9 23  1  0  0  0  0
 11 12  1  0  0  0  0
 11 13  1  0  0  0  0
 12 22  1  0  0  0  0
 13 30  1  0  0  0  0
 13 31  1  0  0  0  0
 14 19  2  0  0  0  0
 14 32  1  0  0  0  0
 15 18  1  0  0  0  0
 15 33  1  0  0  0  0
 16 24  2  0  0  0  0
 16 25  1  0  0  0  0
 17 18  2  0  0  0  0
 17 19  1  0  0  0  0
 17 20  1  0  0  0  0
 18 34  1  0  0  0  0
 19 35  1  0  0  0  0
 20 26  1  0  0  0  0
 21 22  2  0  0  0  0
 21 24  1  0  0  0  0
 21 36  1  0  0  0  0
 22 37  1  0  0  0  0
 23 27  2  0  0  0  0
 23 38  1  0  0  0  0
 24 39  1  0  0  0  0
 25 28  2  0  0  0  0
 25 40  1  0  0  0  0
 26 41  1  0  0  0  0
 26 42  1  0  0  0  0
 26 43  1  0  0  0  0
 27 28  1  0  0  0  0
 27 44  1  0  0  0  0
 28 45  1  0  0  0  0
M  END
>  <$CLUSTER>
744

>  <INDEX>
488231

$$$$
Specs AC-907/34130057
  MOE2020           3D

 39 40  0  0  0  0  0  0  0  0999 V2000
    1.2340   -1.0130   -1.3150 C   0  0  0  0  0  0  0  0  0  0  0  0
   -0.3820    0.6020   -0.4910 C   0  0  0  0  0  0  0  0  0  0  0  0
    1.3130   -1.6030    0.0400 C   0  0  0  0  0  0  0  0  0  0  0  0
    0.5070   -1.0030    1.0250 N   0  0  0  0  0  0  0  0  0  0  0  0
   -0.3380    0.0990    0.7610 C   0  0  0  0  0  0  0  0  0  0  0  0
    0.4280    0.0250   -1.5410 C   0  0  0  0  0  0  0  0  0  0  0  0
    1.9920   -1.4710   -2.5360 C   0  0  0  0  0  0  0  0  0  0  0  0
   -1.2590    1.7340   -0.8390 C   0  0  0  0  0  0  0  0  0  0  0  0
    0.5240   -1.5000    2.3270 C   0  0  0  0  0  0  0  0  0  0  0  0
   -1.1210    0.6560    1.8680 C   0  0  0  0  0  0  0  0  0  0  0  0
    2.0620   -2.5600    0.2170 O   0  0  0  0  0  0  0  0  0  0  0  0
   -1.0560    0.1320    3.0990 C   0  0  0  0  0  0  0  0  0  0  0  0
   -0.2000   -0.9960    3.3340 C   0  0  0  0  0  0  0  0  0  0  0  0
   -2.4800    1.7230   -0.7830 O   0  0  0  0  0  0  0  0  0  0  0  0
    1.9250   -0.9840   -3.6570 O   0  0  0  0  0  0  0  0  0  0  0  0
    2.7870   -2.5240   -2.2360 O   0  0  0  0  0  0  0  0  0  0  0  0
   -0.5110    2.7930   -1.2320 O   0  0  0  0  0  0  0  0  0  0  0  0
    1.4350   -2.6780    2.5480 C   0  0  0  0  0  0  0  0  0  0  0  0
   -1.2260    3.9850   -1.6080 C   0  0  0  0  0  0  0  0  0  0  0  0
    3.5770   -3.0830   -3.2810 C   0  0  0  0  0  0  0  0  0  0  0  0
   -0.2240    5.0480   -2.0140 C   0  0  0  0  0  0  0  0  0  0  0  0
    4.3850   -4.2420   -2.7320 C   0  0  0  0  0  0  0  0  0  0  0  0
    0.3790    0.4460   -2.5340 H   0  0  0  0  0  0  0  0  0  0  0  0
   -1.7630    1.5060    1.6880 H   0  0  0  0  0  0  0  0  0  0  0  0
   -1.6400    0.5530    3.9040 H   0  0  0  0  0  0  0  0  0  0  0  0
   -0.1400   -1.4360    4.3180 H   0  0  0  0  0  0  0  0  0  0  0  0
    1.9310   -2.9340    1.6120 H   0  0  0  0  0  0  0  0  0  0  0  0
    0.8500   -3.5300    2.8940 H   0  0  0  0  0  0  0  0  0  0  0  0
    2.1830   -2.4230    3.2980 H   0  0  0  0  0  0  0  0  0  0  0  0
   -1.8150    4.3410   -0.7630 H   0  0  0  0  0  0  0  0  0  0  0  0
   -1.8880    3.7660   -2.4460 H   0  0  0  0  0  0  0  0  0  0  0  0
    4.2520   -2.3230   -3.6740 H   0  0  0  0  0  0  0  0  0  0  0  0
    2.9260   -3.4390   -4.0790 H   0  0  0  0  0  0  0  0  0  0  0  0
    0.4360    5.2650   -1.1740 H   0  0  0  0  0  0  0  0  0  0  0  0
   -0.7540    5.9560   -2.3030 H   0  0  0  0  0  0  0  0  0  0  0  0
    0.3660    4.6880   -2.8570 H   0  0  0  0  0  0  0  0  0  0  0  0
    5.0360   -3.8850   -1.9340 H   0  0  0  0  0  0  0  0  0  0  0  0
    4.9910   -4.6730   -3.5290 H   0  0  0  0  0  0  0  0  0  0  0  0
    3.7100   -5.0010   -2.3380 H   0  0  0  0  0  0  0  0  0  0  0  0
  1  3  1  0  0  0  0
  1  6  2  0  0  0  0
  1  7  1  0  0  0  0
  2  5  2  0  0  0  0
  2  6  1  0  0  0  0
  2  8  1  0  0  0  0
  3  4  1  0  0  0  0
  3 11  2  0  0  0  0
  4  5  1  0  0  0  0
  4  9  1  0  0  0  0
  5 10  1  0  0  0  0
  6 23  1  0  0  0  0
  7 15  2  0  0  0  0
  7 16  1  0  0  0  0
  8 14  2  0  0  0  0
  8 17  1  0  0  0  0
  9 13  2  0  0  0  0
  9 18  1  0  0  0  0
 10 12  2  0  0  0  0
 10 24  1  0  0  0  0
 12 13  1  0  0  0  0
 12 25  1  0  0  0  0
 13 26  1  0  0  0  0
 16 20  1  0  0  0  0
 17 19  1  0  0  0  0
 18 27  1  0  0  0  0
 18 28  1  0  0  0  0
 18 29  1  0  0  0  0
 19 21  1  0  0  0  0
 19 30  1  0  0  0  0
 19 31  1  0  0  0  0
 20 22  1  0  0  0  0
 20 32  1  0  0  0  0
 20 33  1  0  0  0  0
 21 34  1  0  0  0  0
 21 35  1  0  0  0  0
 21 36  1  0  0  0  0
 22 37  1  0  0  0  0
 22 38  1  0  0  0  0
 22 39  1  0  0  0  0
M  END
>  <$CLUSTER>
745

>  <INDEX>
488995

$$$$
BiotechCA 5933
  MOE2020           3D

 24 26  0  0  0  0  0  0  0  0999 V2000
    1.1420    1.2660    1.0410 C   0  0  0  0  0  0  0  0  0  0  0  0
    1.4060    1.3550   -0.3110 N   0  0  0  0  0  0  0  0  0  0  0  0
   -0.2850   -0.2820   -0.9300 C   0  0  0  0  0  0  0  0  0  0  0  0
   -0.6220   -0.4300    0.5010 C   0  0  0  0  0  0  0  0  0  0  0  0
    0.7310    0.6170   -1.2970 C   0  0  0  0  0  0  0  0  0  0  0  0
    0.0760    0.3270    1.4630 C   0  0  0  0  0  0  0  0  0  0  0  0
   -0.9200   -0.9890   -1.9670 C   0  0  0  0  0  0  0  0  0  0  0  0
    1.7530    1.9290    1.8770 O   0  0  0  0  0  0  0  0  0  0  0  0
    1.1000    0.8050   -2.6360 C   0  0  0  0  0  0  0  0  0  0  0  0
   -0.5550   -0.8040   -3.3050 C   0  0  0  0  0  0  0  0  0  0  0  0
    0.4540    0.0920   -3.6390 C   0  0  0  0  0  0  0  0  0  0  0  0
   -1.3630   -1.6900   -4.5170 Cl  0  0  0  0  0  0  0  0  0  0  0  0
   -1.6210   -1.3020    0.9750 C   0  0  0  0  0  0  0  0  0  0  0  0
   -0.2120    0.2170    2.8310 C   0  0  0  0  0  0  0  0  0  0  0  0
   -1.9090   -1.4120    2.3390 C   0  0  0  0  0  0  0  0  0  0  0  0
   -1.2060   -0.6540    3.2660 C   0  0  0  0  0  0  0  0  0  0  0  0
    2.1310    1.9910   -0.6100 H   0  0  0  0  0  0  0  0  0  0  0  0
   -1.7060   -1.6890   -1.7250 H   0  0  0  0  0  0  0  0  0  0  0  0
    1.8850    1.5030   -2.8880 H   0  0  0  0  0  0  0  0  0  0  0  0
    0.7340    0.2330   -4.6720 H   0  0  0  0  0  0  0  0  0  0  0  0
   -2.1780   -1.9000    0.2690 H   0  0  0  0  0  0  0  0  0  0  0  0
    0.3380    0.8090    3.5480 H   0  0  0  0  0  0  0  0  0  0  0  0
   -2.6810   -2.0890    2.6730 H   0  0  0  0  0  0  0  0  0  0  0  0
   -1.4300   -0.7400    4.3190 H   0  0  0  0  0  0  0  0  0  0  0  0
  1  2  1  0  0  0  0
  1  6  1  0  0  0  0
  1  8  2  0  0  0  0
  2  5  1  0  0  0  0
  2 17  1  0  0  0  0
  3  4  1  0  0  0  0
  3  5  2  0  0  0  0
  3  7  1  0  0  0  0
  4  6  2  0  0  0  0
  4 13  1  0  0  0  0
  5  9  1  0  0  0  0
  6 14  1  0  0  0  0
  7 10  2  0  0  0  0
  7 18  1  0  0  0  0
  9 11  2  0  0  0  0
  9 19  1  0  0  0  0
 10 11  1  0  0  0  0
 10 12  1  0  0  0  0
 11 20  1  0  0  0  0
 13 15  2  0  0  0  0
 13 21  1  0  0  0  0
 14 16  2  0  0  0  0
 14 22  1  0  0  0  0
 15 16  1  0  0  0  0
 15 23  1  0  0  0  0
 16 24  1  0  0  0  0
M  END
>  <$CLUSTER>
746

>  <INDEX>
54572

$$$$
Specs AE-848/36048014
  MOE2020           3D

 32 34  0  0  0  0  0  0  0  0999 V2000
    0.1290    1.0530   -0.0690 C   0  0  0  0  0  0  0  0  0  0  0  0
    1.7900    8.8130   -0.5570 N   0  3  0  0  0  0  0  0  0  0  0  0
   -1.5550    0.6330   -0.0830 S   0  0  0  0  0  0  0  0  0  0  0  0
    1.0000   -0.1390    0.0350 C   0  0  0  0  0  0  0  0  0  0  0  0
    0.1950   -1.3550    0.0980 C   0  0  0  0  0  0  0  0  0  0  0  0
   -1.1730   -1.0930    0.0450 C   0  0  0  0  0  0  0  0  0  0  0  0
    0.6260    2.2890   -0.1410 C   0  0  0  0  0  0  0  0  0  0  0  0
    1.3010    7.4750   -0.4780 C   0  0  0  0  0  0  0  0  0  0  0  0
   -0.0580    7.1800   -0.4930 C   0  0  0  0  0  0  0  0  0  0  0  0
   -0.0350    3.4730   -0.2390 N   0  0  0  0  0  0  0  0  0  0  0  0
   -0.4760    5.8490   -0.4130 C   0  0  0  0  0  0  0  0  0  0  0  0
    3.0060    9.0470   -0.5420 O   0  5  0  0  0  0  0  0  0  0  0  0
    0.4420    4.7860   -0.3160 C   0  0  0  0  0  0  0  0  0  0  0  0
    0.9150    9.6870   -0.6390 O   0  0  0  0  0  0  0  0  0  0  0  0
    2.2220   -0.1330    0.0650 O   0  0  0  0  0  0  0  0  0  0  0  0
    2.2310    6.4440   -0.3840 C   0  0  0  0  0  0  0  0  0  0  0  0
    1.8070    5.1130   -0.3040 C   0  0  0  0  0  0  0  0  0  0  0  0
   -1.8170    5.5590   -0.4270 O   0  0  0  0  0  0  0  0  0  0  0  0
    0.6910   -2.6440    0.1990 C   0  0  0  0  0  0  0  0  0  0  0  0
   -2.0850   -2.1380    0.0930 C   0  0  0  0  0  0  0  0  0  0  0  0
   -0.2230   -3.6970    0.2480 C   0  0  0  0  0  0  0  0  0  0  0  0
   -1.6020   -3.4460    0.1950 C   0  0  0  0  0  0  0  0  0  0  0  0
    1.7040    2.3590   -0.1180 H   0  0  0  0  0  0  0  0  0  0  0  0
   -0.7860    7.9750   -0.5660 H   0  0  0  0  0  0  0  0  0  0  0  0
   -1.0410    3.3910   -0.2600 H   0  0  0  0  0  0  0  0  0  0  0  0
    3.2860    6.6730   -0.3730 H   0  0  0  0  0  0  0  0  0  0  0  0
    2.5420    4.3250   -0.2320 H   0  0  0  0  0  0  0  0  0  0  0  0
   -2.0310    4.6250   -0.3680 H   0  0  0  0  0  0  0  0  0  0  0  0
    1.7540   -2.8290    0.2390 H   0  0  0  0  0  0  0  0  0  0  0  0
   -3.1470   -1.9450    0.0520 H   0  0  0  0  0  0  0  0  0  0  0  0
    0.1340   -4.7130    0.3270 H   0  0  0  0  0  0  0  0  0  0  0  0
   -2.2980   -4.2710    0.2330 H   0  0  0  0  0  0  0  0  0  0  0  0
  1  3  1  0  0  0  0
  1  4  1  0  0  0  0
  1  7  2  0  0  0  0
  2  8  1  0  0  0  0
  2 12  1  0  0  0  0
  2 14  2  0  0  0  0
  3  6  1  0  0  0  0
  4  5  1  0  0  0  0
  4 15  2  0  0  0  0
  5  6  1  0  0  0  0
  5 19  2  0  0  0  0
  6 20  2  0  0  0  0
  7 10  1  0  0  0  0
  7 23  1  0  0  0  0
  8  9  1  0  0  0  0
  8 16  2  0  0  0  0
  9 11  2  0  0  0  0
  9 24  1  0  0  0  0
 10 13  1  0  0  0  0
 10 25  1  0  0  0  0
 11 13  1  0  0  0  0
 11 18  1  0  0  0  0
 13 17  2  0  0  0  0
 16 17  1  0  0  0  0
 16 26  1  0  0  0  0
 17 27  1  0  0  0  0
 18 28  1  0  0  0  0
 19 21  1  0  0  0  0
 19 29  1  0  0  0  0
 20 22  1  0  0  0  0
 20 30  1  0  0  0  0
 21 22  2  0  0  0  0
 21 31  1  0  0  0  0
 22 32  1  0  0  0  0
M  CHG  1   2   1
M  CHG  1  12  -1
M  END
>  <$CLUSTER>
747

>  <INDEX>
491435

$$$$
Chemical Block A3560/0151021
  MOE2020           3D

 46 50  0  0  1  0  0  0  0  0999 V2000
   -0.1800    0.1340   -0.3240 N   0  0  0  0  0  0  0  0  0  0  0  0
   -2.3350   -0.6460   -0.7300 C   0  0  3  0  0  0  0  0  0  0  0  0
   -1.8660    0.0990   -1.9560 C   0  0  3  0  0  0  0  0  0  0  0  0
   -1.1220   -0.7640    0.1470 C   0  0  0  0  0  0  0  0  0  0  0  0
   -0.5480    0.7110   -1.5290 C   0  0  0  0  0  0  0  0  0  0  0  0
   -3.5950    1.2330   -0.8810 N   0  0  0  0  0  0  0  0  0  0  0  0
   -3.2820    0.1590   -0.0350 O   0  0  0  0  0  0  0  0  0  0  0  0
   -2.9520    1.1320   -2.1890 C   0  0  3  0  0  0  0  0  0  0  0  0
    1.0520    0.4160    0.3300 C   0  0  0  0  0  0  0  0  0  0  0  0
   -3.9060    0.6930   -3.2860 C   0  0  0  0  0  0  0  0  0  0  0  0
    0.0380    1.5670   -2.1790 O   0  0  0  0  0  0  0  0  0  0  0  0
   -1.0400   -1.5570    1.0750 O   0  0  0  0  0  0  0  0  0  0  0  0
   -4.4340    2.2660   -0.4660 C   0  0  0  0  0  0  0  0  0  0  0  0
    1.1650    0.6210    1.7190 C   0  0  0  0  0  0  0  0  0  0  0  0
   -4.9140   -0.2610   -3.0770 C   0  0  0  0  0  0  0  0  0  0  0  0
   -3.7560    1.2350   -4.5740 C   0  0  0  0  0  0  0  0  0  0  0  0
   -5.6000   -0.0960   -5.3890 C   0  0  0  0  0  0  0  0  0  0  0  0
   -0.2060    0.7840    2.7660 Cl  0  0  0  0  0  0  0  0  0  0  0  0
   -5.7560   -0.6500   -4.1210 C   0  0  0  0  0  0  0  0  0  0  0  0
   -4.5990    0.8450   -5.6160 C   0  0  0  0  0  0  0  0  0  0  0  0
   -6.6370   -0.5780   -6.6500 Cl  0  0  0  0  0  0  0  0  0  0  0  0
    2.2230    0.4910   -0.4460 C   0  0  0  0  0  0  0  0  0  0  0  0
   -4.7490    3.3650   -1.2830 C   0  0  0  0  0  0  0  0  0  0  0  0
   -5.0070    2.2430    0.8200 C   0  0  0  0  0  0  0  0  0  0  0  0
    2.4190    0.8450    2.3050 C   0  0  0  0  0  0  0  0  0  0  0  0
    3.4690    0.7160    0.1430 C   0  0  0  0  0  0  0  0  0  0  0  0
   -5.5950    4.3880   -0.8390 C   0  0  0  0  0  0  0  0  0  0  0  0
    3.5680    0.8850    1.5190 C   0  0  0  0  0  0  0  0  0  0  0  0
   -5.8520    3.2630    1.2670 C   0  0  0  0  0  0  0  0  0  0  0  0
   -6.1470    4.3370    0.4360 C   0  0  0  0  0  0  0  0  0  0  0  0
   -2.7800   -1.6080   -0.9850 H   0  0  0  0  0  0  0  0  0  0  0  0
   -1.7140   -0.4760   -2.8700 H   0  0  0  0  0  0  0  0  0  0  0  0
   -2.5760    2.0940   -2.5380 H   0  0  0  0  0  0  0  0  0  0  0  0
   -5.0400   -0.6990   -2.0980 H   0  0  0  0  0  0  0  0  0  0  0  0
   -2.9790    1.9620   -4.7600 H   0  0  0  0  0  0  0  0  0  0  0  0
   -6.5300   -1.3820   -3.9450 H   0  0  0  0  0  0  0  0  0  0  0  0
   -4.4750    1.2740   -6.5990 H   0  0  0  0  0  0  0  0  0  0  0  0
    2.1570    0.3720   -1.5170 H   0  0  0  0  0  0  0  0  0  0  0  0
   -4.3290    3.4220   -2.2760 H   0  0  0  0  0  0  0  0  0  0  0  0
   -4.7880    1.4150    1.4780 H   0  0  0  0  0  0  0  0  0  0  0  0
    2.4940    0.9870    3.3730 H   0  0  0  0  0  0  0  0  0  0  0  0
    4.3560    0.7590   -0.4710 H   0  0  0  0  0  0  0  0  0  0  0  0
   -5.8200    5.2200   -1.4900 H   0  0  0  0  0  0  0  0  0  0  0  0
    4.5330    1.0470    1.9770 H   0  0  0  0  0  0  0  0  0  0  0  0
   -6.2760    3.2160    2.2590 H   0  0  0  0  0  0  0  0  0  0  0  0
   -6.8000    5.1260    0.7780 H   0  0  0  0  0  0  0  0  0  0  0  0
  1  4  1  0  0  0  0
  1  5  1  0  0  0  0
  1  9  1  0  0  0  0
  2  3  1  0  0  0  0
  2  4  1  0  0  0  0
  2  7  1  0  0  0  0
  2 31  1  0  0  0  0
  3  5  1  0  0  0  0
  3  8  1  0  0  0  0
  3 32  1  0  0  0  0
  4 12  2  0  0  0  0
  5 11  2  0  0  0  0
  6  7  1  0  0  0  0
  6  8  1  0  0  0  0
  6 13  1  0  0  0  0
  8 10  1  0  0  0  0
  8 33  1  0  0  0  0
  9 14  2  0  0  0  0
  9 22  1  0  0  0  0
 10 15  2  0  0  0  0
 10 16  1  0  0  0  0
 13 23  2  0  0  0  0
 13 24  1  0  0  0  0
 14 18  1  0  0  0  0
 14 25  1  0  0  0  0
 15 19  1  0  0  0  0
 15 34  1  0  0  0  0
 16 20  2  0  0  0  0
 16 35  1  0  0  0  0
 17 19  2  0  0  0  0
 17 20  1  0  0  0  0
 17 21  1  0  0  0  0
 19 36  1  0  0  0  0
 20 37  1  0  0  0  0
 22 26  2  0  0  0  0
 22 38  1  0  0  0  0
 23 27  1  0  0  0  0
 23 39  1  0  0  0  0
 24 29  2  0  0  0  0
 24 40  1  0  0  0  0
 25 28  2  0  0  0  0
 25 41  1  0  0  0  0
 26 28  1  0  0  0  0
 26 42  1  0  0  0  0
 27 30  2  0  0  0  0
 27 43  1  0  0  0  0
 28 44  1  0  0  0  0
 29 30  1  0  0  0  0
 29 45  1  0  0  0  0
 30 46  1  0  0  0  0
M  END
>  <$CLUSTER>
748

>  <INDEX>
116360

$$$$
Labotest LT00145590
  MOE2020           3D

 49 51  0  0  0  0  0  0  0  0999 V2000
   -0.6640   -0.7010    0.2030 N   0  0  0  0  0  0  0  0  0  0  0  0
   -1.5310    0.2920    0.5720 C   0  0  0  0  0  0  0  0  0  0  0  0
    0.5330   -0.3250   -0.3630 C   0  0  0  0  0  0  0  0  0  0  0  0
    0.6180    1.1490   -0.4610 C   0  0  0  0  0  0  0  0  0  0  0  0
   -0.8290    1.8610    0.1930 S   0  0  0  0  0  0  0  0  0  0  0  0
   -1.0070   -2.0880    0.3740 C   0  0  0  0  0  0  0  0  0  0  0  0
    1.6080    1.8980   -0.9540 C   0  0  0  0  0  0  0  0  0  0  0  0
   -0.4100   -2.6010    1.6140 N   0  3  0  0  0  0  0  0  0  0  0  0
   -2.6320    0.1670    1.0920 O   0  0  0  0  0  0  0  0  0  0  0  0
    1.4080   -1.1060   -0.7170 O   0  0  0  0  0  0  0  0  0  0  0  0
    5.3080    0.6140   -2.6520 C   0  0  0  0  0  0  0  0  0  0  0  0
    2.9060    1.4530   -1.5520 C   0  0  0  0  0  0  0  0  0  0  0  0
    4.6580    1.7400   -3.1520 C   0  0  0  0  0  0  0  0  0  0  0  0
    4.7510   -0.0950   -1.5900 C   0  0  0  0  0  0  0  0  0  0  0  0
    6.6440    0.1730   -3.2850 C   0  0  0  0  0  0  0  0  0  0  0  0
    3.5400    0.3170   -1.0300 C   0  0  0  0  0  0  0  0  0  0  0  0
    3.4480    2.1540   -2.5920 C   0  0  0  0  0  0  0  0  0  0  0  0
    0.1710   -3.9350    1.5170 C   0  0  0  0  0  0  0  0  0  0  0  0
   -1.2700   -2.3640    2.8070 C   0  0  0  0  0  0  0  0  0  0  0  0
    6.5380   -1.2210   -3.9090 C   0  0  0  0  0  0  0  0  0  0  0  0
    7.7930    0.2320   -2.2740 C   0  0  0  0  0  0  0  0  0  0  0  0
   -0.5430   -2.7500    4.0980 C   0  0  0  0  0  0  0  0  0  0  0  0
    0.9070   -4.3390    2.7900 C   0  0  0  0  0  0  0  0  0  0  0  0
    0.0380   -4.1590    4.0300 C   0  0  0  0  0  0  0  0  0  0  0  0
   -0.6290   -2.6610   -0.4730 H   0  0  0  0  0  0  0  0  0  0  0  0
   -2.0910   -2.1890    0.4260 H   0  0  0  0  0  0  0  0  0  0  0  0
    1.4510    2.9660   -0.9160 H   0  0  0  0  0  0  0  0  0  0  0  0
    0.4100   -2.0320    1.7680 H   0  0  0  0  0  0  0  0  0  0  0  0
    5.0900    2.2930   -3.9730 H   0  0  0  0  0  0  0  0  0  0  0  0
    5.2570   -0.9650   -1.1990 H   0  0  0  0  0  0  0  0  0  0  0  0
    6.8670    0.8800   -4.0840 H   0  0  0  0  0  0  0  0  0  0  0  0
    3.1000   -0.2300   -0.2090 H   0  0  0  0  0  0  0  0  0  0  0  0
    2.9420    3.0260   -2.9800 H   0  0  0  0  0  0  0  0  0  0  0  0
   -0.6280   -4.6530    1.3310 H   0  0  0  0  0  0  0  0  0  0  0  0
    0.8750   -3.9510    0.6850 H   0  0  0  0  0  0  0  0  0  0  0  0
   -1.5350   -1.3080    2.8500 H   0  0  0  0  0  0  0  0  0  0  0  0
   -2.1760   -2.9630    2.7170 H   0  0  0  0  0  0  0  0  0  0  0  0
    6.3150   -1.9510   -3.1310 H   0  0  0  0  0  0  0  0  0  0  0  0
    7.4830   -1.4780   -4.3880 H   0  0  0  0  0  0  0  0  0  0  0  0
    5.7410   -1.2270   -4.6520 H   0  0  0  0  0  0  0  0  0  0  0  0
    7.5970   -0.4670   -1.4600 H   0  0  0  0  0  0  0  0  0  0  0  0
    7.8730    1.2430   -1.8740 H   0  0  0  0  0  0  0  0  0  0  0  0
    8.7260   -0.0380   -2.7680 H   0  0  0  0  0  0  0  0  0  0  0  0
    0.2690   -2.0430    4.2690 H   0  0  0  0  0  0  0  0  0  0  0  0
   -1.2490   -2.7000    4.9270 H   0  0  0  0  0  0  0  0  0  0  0  0
    1.1970   -5.3870    2.7120 H   0  0  0  0  0  0  0  0  0  0  0  0
    1.7990   -3.7220    2.8920 H   0  0  0  0  0  0  0  0  0  0  0  0
   -0.7790   -4.8790    3.9990 H   0  0  0  0  0  0  0  0  0  0  0  0
    0.6450   -4.3360    4.9180 H   0  0  0  0  0  0  0  0  0  0  0  0
  1  2  1  0  0  0  0
  1  3  1  0  0  0  0
  1  6  1  0  0  0  0
  2  5  1  0  0  0  0
  2  9  2  0  0  0  0
  3  4  1  0  0  0  0
  3 10  2  0  0  0  0
  4  5  1  0  0  0  0
  4  7  2  0  0  0  0
  6  8  1  0  0  0  0
  6 25  1  0  0  0  0
  6 26  1  0  0  0  0
  7 12  1  0  0  0  0
  7 27  1  0  0  0  0
  8 18  1  0  0  0  0
  8 19  1  0  0  0  0
  8 28  1  0  0  0  0
 11 13  1  0  0  0  0
 11 14  2  0  0  0  0
 11 15  1  0  0  0  0
 12 16  2  0  0  0  0
 12 17  1  0  0  0  0
 13 17  2  0  0  0  0
 13 29  1  0  0  0  0
 14 16  1  0  0  0  0
 14 30  1  0  0  0  0
 15 20  1  0  0  0  0
 15 21  1  0  0  0  0
 15 31  1  0  0  0  0
 16 32  1  0  0  0  0
 17 33  1  0  0  0  0
 18 23  1  0  0  0  0
 18 34  1  0  0  0  0
 18 35  1  0  0  0  0
 19 22  1  0  0  0  0
 19 36  1  0  0  0  0
 19 37  1  0  0  0  0
 20 38  1  0  0  0  0
 20 39  1  0  0  0  0
 20 40  1  0  0  0  0
 21 41  1  0  0  0  0
 21 42  1  0  0  0  0
 21 43  1  0  0  0  0
 22 24  1  0  0  0  0
 22 44  1  0  0  0  0
 22 45  1  0  0  0  0
 23 24  1  0  0  0  0
 23 46  1  0  0  0  0
 23 47  1  0  0  0  0
 24 48  1  0  0  0  0
 24 49  1  0  0  0  0
M  CHG  1   8   1
M  END
>  <$CLUSTER>
749

>  <INDEX>
316016

$$$$
Chemdiv 8004-7250
  MOE2020           3D

 51 53  0  0  0  0  0  0  0  0999 V2000
    0.3200    0.5500   -0.8350 C   0  0  0  0  0  0  0  0  0  0  0  0
   -0.6960   -0.9780    2.4580 C   0  0  0  0  0  0  0  0  0  0  0  0
   -0.1080   -0.2420    1.4370 N   0  0  0  0  0  0  0  0  0  0  0  0
   -0.4100   -0.2730    0.0500 C   0  0  0  0  0  0  0  0  0  0  0  0
    1.3630    1.4790   -0.3460 C   0  0  0  0  0  0  0  0  0  0  0  0
    6.7440    3.3890   -2.3160 C   0  0  0  0  0  0  0  0  0  0  0  0
    5.7210    3.2920   -1.3360 C   0  0  0  0  0  0  0  0  0  0  0  0
    3.6230    2.3210   -0.7470 N   0  0  0  0  0  0  0  0  0  0  0  0
    7.8520    4.2150   -2.0510 C   0  0  0  0  0  0  0  0  0  0  0  0
   -0.0810   -0.6390    3.7940 C   0  0  0  0  0  0  0  0  0  0  0  0
    2.5320    1.5020   -1.0730 N   0  0  0  0  0  0  0  0  0  0  0  0
   -1.5940   -1.8090    2.3760 O   0  0  0  0  0  0  0  0  0  0  0  0
    1.1680    2.1590    0.6560 O   0  0  0  0  0  0  0  0  0  0  0  0
    4.5330    2.4170   -1.6010 C   0  0  0  0  0  0  0  0  0  0  0  0
    5.8190    3.9990   -0.1500 C   0  0  0  0  0  0  0  0  0  0  0  0
   -0.8990   -0.8890    4.9390 C   0  0  0  0  0  0  0  0  0  0  0  0
    1.2030   -0.1820    3.9740 C   0  0  0  0  0  0  0  0  0  0  0  0
    7.9350    4.9210   -0.8490 C   0  0  0  0  0  0  0  0  0  0  0  0
    0.8960   -0.1410    6.3750 C   0  0  0  0  0  0  0  0  0  0  0  0
    6.9220    4.8140    0.1010 C   0  0  0  0  0  0  0  0  0  0  0  0
    6.5840    2.6530   -3.4860 O   0  0  0  0  0  0  0  0  0  0  0  0
    1.6970    0.0780    5.2560 C   0  0  0  0  0  0  0  0  0  0  0  0
   -0.4010   -0.6260    6.2160 C   0  0  0  0  0  0  0  0  0  0  0  0
    1.4450    0.1370    7.5580 F   0  0  0  0  0  0  0  0  0  0  0  0
    0.0490    0.5360   -2.2120 C   0  0  0  0  0  0  0  0  0  0  0  0
    9.0740    5.6900   -0.7260 O   0  0  0  0  0  0  0  0  0  0  0  0
   -1.4000   -1.1070   -0.4880 C   0  0  0  0  0  0  0  0  0  0  0  0
    7.6220    2.7570   -4.4690 C   0  0  0  0  0  0  0  0  0  0  0  0
    9.2170    6.4330    0.4790 C   0  0  0  0  0  0  0  0  0  0  0  0
   -0.9380   -0.3020   -2.7230 C   0  0  0  0  0  0  0  0  0  0  0  0
   -1.6600   -1.1220   -1.8630 C   0  0  0  0  0  0  0  0  0  0  0  0
    0.6250    0.3940    1.7160 H   0  0  0  0  0  0  0  0  0  0  0  0
    8.6430    4.3030   -2.7810 H   0  0  0  0  0  0  0  0  0  0  0  0
    2.6080    0.9000   -1.8800 H   0  0  0  0  0  0  0  0  0  0  0  0
    4.4620    1.8690   -2.5290 H   0  0  0  0  0  0  0  0  0  0  0  0
    5.0340    3.9190    0.5870 H   0  0  0  0  0  0  0  0  0  0  0  0
   -1.8980   -1.2800    4.8170 H   0  0  0  0  0  0  0  0  0  0  0  0
    1.8380   -0.0220    3.1150 H   0  0  0  0  0  0  0  0  0  0  0  0
    6.9910    5.3610    1.0300 H   0  0  0  0  0  0  0  0  0  0  0  0
    2.7030    0.4500    5.3790 H   0  0  0  0  0  0  0  0  0  0  0  0
   -1.0220   -0.7990    7.0830 H   0  0  0  0  0  0  0  0  0  0  0  0
    0.6080    1.1770   -2.8770 H   0  0  0  0  0  0  0  0  0  0  0  0
   -1.9710   -1.7470    0.1680 H   0  0  0  0  0  0  0  0  0  0  0  0
    7.3720    2.1350   -5.3280 H   0  0  0  0  0  0  0  0  0  0  0  0
    8.5650    2.4200   -4.0390 H   0  0  0  0  0  0  0  0  0  0  0  0
    7.7180    3.7950   -4.7880 H   0  0  0  0  0  0  0  0  0  0  0  0
   10.1510    6.9940    0.4510 H   0  0  0  0  0  0  0  0  0  0  0  0
    9.2290    5.7500    1.3280 H   0  0  0  0  0  0  0  0  0  0  0  0
    8.3810    7.1250    0.5810 H   0  0  0  0  0  0  0  0  0  0  0  0
   -1.1420   -0.3150   -3.7830 H   0  0  0  0  0  0  0  0  0  0  0  0
   -2.4250   -1.7740   -2.2580 H   0  0  0  0  0  0  0  0  0  0  0  0
  1  4  2  0  0  0  0
  1  5  1  0  0  0  0
  1 25  1  0  0  0  0
  2  3  1  0  0  0  0
  2 10  1  0  0  0  0
  2 12  2  0  0  0  0
  3  4  1  0  0  0  0
  3 32  1  0  0  0  0
  4 27  1  0  0  0  0
  5 11  1  0  0  0  0
  5 13  2  0  0  0  0
  6  7  2  0  0  0  0
  6  9  1  0  0  0  0
  6 21  1  0  0  0  0
  7 14  1  0  0  0  0
  7 15  1  0  0  0  0
  8 11  1  0  0  0  0
  8 14  2  0  0  0  0
  9 18  2  0  0  0  0
  9 33  1  0  0  0  0
 10 16  1  0  0  0  0
 10 17  2  0  0  0  0
 11 34  1  0  0  0  0
 14 35  1  0  0  0  0
 15 20  2  0  0  0  0
 15 36  1  0  0  0  0
 16 23  2  0  0  0  0
 16 37  1  0  0  0  0
 17 22  1  0  0  0  0
 17 38  1  0  0  0  0
 18 20  1  0  0  0  0
 18 26  1  0  0  0  0
 19 22  2  0  0  0  0
 19 23  1  0  0  0  0
 19 24  1  0  0  0  0
 20 39  1  0  0  0  0
 21 28  1  0  0  0  0
 22 40  1  0  0  0  0
 23 41  1  0  0  0  0
 25 30  2  0  0  0  0
 25 42  1  0  0  0  0
 26 29  1  0  0  0  0
 27 31  2  0  0  0  0
 27 43  1  0  0  0  0
 28 44  1  0  0  0  0
 28 45  1  0  0  0  0
 28 46  1  0  0  0  0
 29 47  1  0  0  0  0
 29 48  1  0  0  0  0
 29 49  1  0  0  0  0
 30 31  1  0  0  0  0
 30 50  1  0  0  0  0
 31 51  1  0  0  0  0
M  END
>  <$CLUSTER>
750

>  <INDEX>
104375

$$$$
Asinex ASN 05546097
  MOE2020           3D

 46 48  0  0  0  0  0  0  0  0999 V2000
    1.1320   -1.3670   -0.4970 N   0  0  0  0  0  0  0  0  0  0  0  0
    0.0020   -0.6530   -0.2650 C   0  0  0  0  0  0  0  0  0  0  0  0
    2.3210   -0.7810   -0.2000 C   0  0  0  0  0  0  0  0  0  0  0  0
    2.4450    0.4960    0.3230 C   0  0  0  0  0  0  0  0  0  0  0  0
   -1.2420   -1.2110   -0.5530 C   0  0  0  0  0  0  0  0  0  0  0  0
    0.0340    0.6590    0.2690 C   0  0  0  0  0  0  0  0  0  0  0  0
    3.7050    1.0960    0.6290 C   0  0  0  0  0  0  0  0  0  0  0  0
    1.2830    1.2250    0.5600 C   0  0  0  0  0  0  0  0  0  0  0  0
    4.7190    1.6070    0.8880 N   0  0  0  0  0  0  0  0  0  0  0  0
    3.7830   -1.8140   -0.5450 S   0  0  0  0  0  0  0  0  0  0  0  0
    2.3940   -3.1030   -2.5720 C   0  0  0  0  0  0  0  0  0  0  0  0
    3.1950   -3.4550   -3.6050 N   0  0  0  0  0  0  0  0  0  0  0  0
   -2.4290   -0.5100   -0.3280 C   0  0  0  0  0  0  0  0  0  0  0  0
    3.0170   -3.4090   -4.9970 C   0  0  0  0  0  0  0  0  0  0  0  0
   -1.1580    1.3640    0.4950 C   0  0  0  0  0  0  0  0  0  0  0  0
    1.8540   -2.9000   -5.5810 C   0  0  0  0  0  0  0  0  0  0  0  0
    1.2940   -2.5850   -2.7310 O   0  0  0  0  0  0  0  0  0  0  0  0
   -2.3870    0.7780    0.1960 C   0  0  0  0  0  0  0  0  0  0  0  0
    3.0110   -3.3250   -1.1960 C   0  0  0  0  0  0  0  0  0  0  0  0
    1.7190   -2.8680   -6.9740 C   0  0  0  0  0  0  0  0  0  0  0  0
   -1.3060   -2.6040   -1.1200 C   0  0  0  0  0  0  0  0  0  0  0  0
    0.5190   -2.3390   -7.4150 O   0  0  0  0  0  0  0  0  0  0  0  0
    3.9040   -3.8500   -7.2190 C   0  0  0  0  0  0  0  0  0  0  0  0
    4.0410   -3.8840   -5.8310 C   0  0  0  0  0  0  0  0  0  0  0  0
   -3.7430   -1.1430   -0.6510 C   0  0  0  0  0  0  0  0  0  0  0  0
    2.7420   -3.3410   -7.7920 C   0  0  0  0  0  0  0  0  0  0  0  0
    0.3250   -2.2810   -8.8240 C   0  0  0  0  0  0  0  0  0  0  0  0
    1.3440    2.2240    0.9670 H   0  0  0  0  0  0  0  0  0  0  0  0
    4.0920   -3.8210   -3.3200 H   0  0  0  0  0  0  0  0  0  0  0  0
   -1.1230    2.3640    0.9020 H   0  0  0  0  0  0  0  0  0  0  0  0
    1.0560   -2.5300   -4.9550 H   0  0  0  0  0  0  0  0  0  0  0  0
   -3.3030    1.3220    0.3710 H   0  0  0  0  0  0  0  0  0  0  0  0
    2.2290   -3.6460   -0.5070 H   0  0  0  0  0  0  0  0  0  0  0  0
    3.7700   -4.1030   -1.2720 H   0  0  0  0  0  0  0  0  0  0  0  0
   -0.2960   -2.9980   -1.2300 H   0  0  0  0  0  0  0  0  0  0  0  0
   -1.7930   -2.5780   -2.0950 H   0  0  0  0  0  0  0  0  0  0  0  0
   -1.8750   -3.2450   -0.4460 H   0  0  0  0  0  0  0  0  0  0  0  0
    4.7000   -4.2190   -7.8490 H   0  0  0  0  0  0  0  0  0  0  0  0
    4.9450   -4.2800   -5.3930 H   0  0  0  0  0  0  0  0  0  0  0  0
   -3.5760   -2.1440   -1.0480 H   0  0  0  0  0  0  0  0  0  0  0  0
   -4.2640   -0.5390   -1.3940 H   0  0  0  0  0  0  0  0  0  0  0  0
   -4.3480   -1.2070    0.2540 H   0  0  0  0  0  0  0  0  0  0  0  0
    2.6340   -3.3130   -8.8660 H   0  0  0  0  0  0  0  0  0  0  0  0
   -0.6520   -1.8470   -9.0390 H   0  0  0  0  0  0  0  0  0  0  0  0
    0.3750   -3.2870   -9.2390 H   0  0  0  0  0  0  0  0  0  0  0  0
    1.1030   -1.6640   -9.2730 H   0  0  0  0  0  0  0  0  0  0  0  0
  1  2  1  0  0  0  0
  1  3  2  0  0  0  0
  2  5  2  0  0  0  0
  2  6  1  0  0  0  0
  3  4  1  0  0  0  0
  3 10  1  0  0  0  0
  4  7  1  0  0  0  0
  4  8  2  0  0  0  0
  5 13  1  0  0  0  0
  5 21  1  0  0  0  0
  6  8  1  0  0  0  0
  6 15  2  0  0  0  0
  7  9  3  0  0  0  0
  8 28  1  0  0  0  0
 10 19  1  0  0  0  0
 11 12  1  0  0  0  0
 11 17  2  0  0  0  0
 11 19  1  0  0  0  0
 12 14  1  0  0  0  0
 12 29  1  0  0  0  0
 13 18  2  0  0  0  0
 13 25  1  0  0  0  0
 14 16  2  0  0  0  0
 14 24  1  0  0  0  0
 15 18  1  0  0  0  0
 15 30  1  0  0  0  0
 16 20  1  0  0  0  0
 16 31  1  0  0  0  0
 18 32  1  0  0  0  0
 19 33  1  0  0  0  0
 19 34  1  0  0  0  0
 20 22  1  0  0  0  0
 20 26  2  0  0  0  0
 21 35  1  0  0  0  0
 21 36  1  0  0  0  0
 21 37  1  0  0  0  0
 22 27  1  0  0  0  0
 23 24  2  0  0  0  0
 23 26  1  0  0  0  0
 23 38  1  0  0  0  0
 24 39  1  0  0  0  0
 25 40  1  0  0  0  0
 25 41  1  0  0  0  0
 25 42  1  0  0  0  0
 26 43  1  0  0  0  0
 27 44  1  0  0  0  0
 27 45  1  0  0  0  0
 27 46  1  0  0  0  0
M  END
>  <$CLUSTER>
751

>  <INDEX>
147567

$$$$
Chemstar CHS 3325001
  MOE2020           3D

 46 49  0  0  1  0  0  0  0  0999 V2000
    0.6220    0.4350   -0.9680 N   0  0  0  0  0  0  0  0  0  0  0  0
    0.9110   -0.4170    1.2260 C   0  0  3  0  0  0  0  0  0  0  0  0
    1.6180    0.1550   -0.0190 C   0  0  0  0  0  0  0  0  0  0  0  0
   -0.5340   -0.3990    0.8180 C   0  0  0  0  0  0  0  0  0  0  0  0
   -0.6510    0.1070   -0.4790 C   0  0  0  0  0  0  0  0  0  0  0  0
    1.4270   -1.8090    1.5610 C   0  0  0  0  0  0  0  0  0  0  0  0
    0.7700   -2.4910    2.7320 C   0  0  0  0  0  0  0  0  0  0  0  0
    0.8730    0.9820   -2.2870 C   0  0  0  0  0  0  0  0  0  0  0  0
    2.8240    0.3330   -0.1220 O   0  0  0  0  0  0  0  0  0  0  0  0
    0.9700   -3.9810    2.8390 C   0  0  0  0  0  0  0  0  0  0  0  0
    1.1160    0.4690    2.3100 O   0  0  0  0  0  0  0  0  0  0  0  0
    0.1430   -1.8770    3.5930 O   0  0  0  0  0  0  0  0  0  0  0  0
    1.6750   -4.7160    1.9120 C   0  0  0  0  0  0  0  0  0  0  0  0
    0.3680   -4.6310    3.9440 C   0  0  0  0  0  0  0  0  0  0  0  0
    0.9690   -0.1050   -3.3450 C   0  0  0  0  0  0  0  0  0  0  0  0
    1.2220   -6.7470    3.1490 C   0  0  0  0  0  0  0  0  0  0  0  0
    1.1510   -2.1180   -5.2920 C   0  0  0  0  0  0  0  0  0  0  0  0
   -1.6550   -0.7950    1.5290 C   0  0  0  0  0  0  0  0  0  0  0  0
    0.5030   -6.0120    4.0890 C   0  0  0  0  0  0  0  0  0  0  0  0
    1.8060   -6.0990    2.0630 C   0  0  0  0  0  0  0  0  0  0  0  0
    1.3230   -3.0820   -6.1970 F   0  0  0  0  0  0  0  0  0  0  0  0
    1.3770   -8.4310    3.3390 Cl  0  0  0  0  0  0  0  0  0  0  0  0
   -1.8820    0.2270   -1.1020 C   0  0  0  0  0  0  0  0  0  0  0  0
   -0.1300   -0.4050   -4.1620 C   0  0  0  0  0  0  0  0  0  0  0  0
    2.1550   -0.8380   -3.5030 C   0  0  0  0  0  0  0  0  0  0  0  0
    2.2470   -1.8370   -4.4750 C   0  0  0  0  0  0  0  0  0  0  0  0
   -0.0370   -1.4050   -5.1340 C   0  0  0  0  0  0  0  0  0  0  0  0
   -2.9040   -0.6790    0.9150 C   0  0  0  0  0  0  0  0  0  0  0  0
   -3.0160   -0.1730   -0.3900 C   0  0  0  0  0  0  0  0  0  0  0  0
    2.4920   -1.7270    1.7770 H   0  0  0  0  0  0  0  0  0  0  0  0
    1.2820   -2.4390    0.6830 H   0  0  0  0  0  0  0  0  0  0  0  0
    1.8110    1.5360   -2.2660 H   0  0  0  0  0  0  0  0  0  0  0  0
    0.0580    1.6570   -2.5490 H   0  0  0  0  0  0  0  0  0  0  0  0
    0.7760    1.3280    2.0510 H   0  0  0  0  0  0  0  0  0  0  0  0
    2.1280   -4.2220    1.0650 H   0  0  0  0  0  0  0  0  0  0  0  0
   -0.1920   -4.0610    4.6700 H   0  0  0  0  0  0  0  0  0  0  0  0
   -1.5650   -1.1840    2.5330 H   0  0  0  0  0  0  0  0  0  0  0  0
    0.0490   -6.5120    4.9320 H   0  0  0  0  0  0  0  0  0  0  0  0
    2.3630   -6.6690    1.3340 H   0  0  0  0  0  0  0  0  0  0  0  0
   -1.9630    0.6170   -2.1060 H   0  0  0  0  0  0  0  0  0  0  0  0
   -1.0540    0.1400   -4.0400 H   0  0  0  0  0  0  0  0  0  0  0  0
    3.0030   -0.6280   -2.8680 H   0  0  0  0  0  0  0  0  0  0  0  0
    3.1660   -2.3920   -4.5940 H   0  0  0  0  0  0  0  0  0  0  0  0
   -0.8860   -1.6260   -5.7640 H   0  0  0  0  0  0  0  0  0  0  0  0
   -3.7930   -0.9810    1.4490 H   0  0  0  0  0  0  0  0  0  0  0  0
   -3.9900   -0.0920   -0.8490 H   0  0  0  0  0  0  0  0  0  0  0  0
  1  3  1  0  0  0  0
  1  5  1  0  0  0  0
  1  8  1  0  0  0  0
  2  3  1  0  0  0  0
  2  4  1  0  0  0  0
  2  6  1  0  0  0  0
  2 11  1  0  0  0  0
  3  9  2  0  0  0  0
  4  5  2  0  0  0  0
  4 18  1  0  0  0  0
  5 23  1  0  0  0  0
  6  7  1  0  0  0  0
  6 30  1  0  0  0  0
  6 31  1  0  0  0  0
  7 10  1  0  0  0  0
  7 12  2  0  0  0  0
  8 15  1  0  0  0  0
  8 32  1  0  0  0  0
  8 33  1  0  0  0  0
 10 13  1  0  0  0  0
 10 14  2  0  0  0  0
 11 34  1  0  0  0  0
 13 20  2  0  0  0  0
 13 35  1  0  0  0  0
 14 19  1  0  0  0  0
 14 36  1  0  0  0  0
 15 24  1  0  0  0  0
 15 25  2  0  0  0  0
 16 19  2  0  0  0  0
 16 20  1  0  0  0  0
 16 22  1  0  0  0  0
 17 21  1  0  0  0  0
 17 26  2  0  0  0  0
 17 27  1  0  0  0  0
 18 28  2  0  0  0  0
 18 37  1  0  0  0  0
 19 38  1  0  0  0  0
 20 39  1  0  0  0  0
 23 29  2  0  0  0  0
 23 40  1  0  0  0  0
 24 27  2  0  0  0  0
 24 41  1  0  0  0  0
 25 26  1  0  0  0  0
 25 42  1  0  0  0  0
 26 43  1  0  0  0  0
 27 44  1  0  0  0  0
 28 29  1  0  0  0  0
 28 45  1  0  0  0  0
 29 46  1  0  0  0  0
M  END
>  <$CLUSTER>
752

>  <INDEX>
197567

$$$$
Pharmeks PHAR000990
  MOE2020           3D

 43 46  0  0  0  0  0  0  0  0999 V2000
   -0.6080   -0.7910    0.0190 C   0  0  0  0  0  0  0  0  0  0  0  0
   -1.0160   -2.0850    0.3390 N   0  0  0  0  0  0  0  0  0  0  0  0
   -2.1360   -2.6980   -0.1920 C   0  0  0  0  0  0  0  0  0  0  0  0
   -1.2890   -0.0700   -0.8290 N   0  0  0  0  0  0  0  0  0  0  0  0
    1.1940    0.8530    0.5580 C   0  0  0  0  0  0  0  0  0  0  0  0
   -2.8780   -1.8570   -1.1420 C   0  0  0  0  0  0  0  0  0  0  0  0
   -2.4090   -0.6310   -1.3850 C   0  0  0  0  0  0  0  0  0  0  0  0
    0.5380   -0.3860    0.6690 N   0  0  0  0  0  0  0  0  0  0  0  0
    2.3120    1.0120    1.3060 N   0  0  0  0  0  0  0  0  0  0  0  0
    2.9580    2.1940    1.2140 C   0  0  0  0  0  0  0  0  0  0  0  0
    0.7160    1.8210   -0.2600 N   0  0  0  0  0  0  0  0  0  0  0  0
    2.5430    3.2290    0.4110 C   0  0  0  0  0  0  0  0  0  0  0  0
    1.4020    2.9830   -0.3130 C   0  0  0  0  0  0  0  0  0  0  0  0
   -2.5060   -3.8340    0.0810 O   0  0  0  0  0  0  0  0  0  0  0  0
   -3.1360    0.2090   -2.3250 C   0  0  0  0  0  0  0  0  0  0  0  0
    4.1840    2.3780    2.0050 C   0  0  0  0  0  0  0  0  0  0  0  0
   -4.0420   -2.3720   -1.7530 C   0  0  0  0  0  0  0  0  0  0  0  0
   -4.7410   -1.5700   -2.6530 C   0  0  0  0  0  0  0  0  0  0  0  0
   -4.2900   -0.2820   -2.9390 C   0  0  0  0  0  0  0  0  0  0  0  0
    0.8190    4.0380   -1.2500 C   0  0  0  0  0  0  0  0  0  0  0  0
   -2.6370    1.5730   -2.6110 C   0  0  0  0  0  0  0  0  0  0  0  0
    4.2930    3.4100    2.9500 C   0  0  0  0  0  0  0  0  0  0  0  0
    5.2610    1.4940    1.8400 C   0  0  0  0  0  0  0  0  0  0  0  0
    6.4240    1.6440    2.5990 C   0  0  0  0  0  0  0  0  0  0  0  0
    5.4570    3.5570    3.7080 C   0  0  0  0  0  0  0  0  0  0  0  0
    6.5220    2.6750    3.5320 C   0  0  0  0  0  0  0  0  0  0  0  0
   -0.4590   -2.6070    1.0000 H   0  0  0  0  0  0  0  0  0  0  0  0
    0.9550   -1.0570    1.2980 H   0  0  0  0  0  0  0  0  0  0  0  0
    3.0750    4.1670    0.3530 H   0  0  0  0  0  0  0  0  0  0  0  0
   -4.3850   -3.3710   -1.5270 H   0  0  0  0  0  0  0  0  0  0  0  0
   -5.6340   -1.9470   -3.1300 H   0  0  0  0  0  0  0  0  0  0  0  0
   -4.8340    0.3370   -3.6370 H   0  0  0  0  0  0  0  0  0  0  0  0
   -0.0800    3.6450   -1.7250 H   0  0  0  0  0  0  0  0  0  0  0  0
    1.5530    4.2900   -2.0150 H   0  0  0  0  0  0  0  0  0  0  0  0
    0.5670    4.9320   -0.6790 H   0  0  0  0  0  0  0  0  0  0  0  0
   -1.7310    1.7570   -2.0330 H   0  0  0  0  0  0  0  0  0  0  0  0
   -3.3980    2.3030   -2.3370 H   0  0  0  0  0  0  0  0  0  0  0  0
   -2.4140    1.6630   -3.6740 H   0  0  0  0  0  0  0  0  0  0  0  0
    3.4710    4.0960    3.0920 H   0  0  0  0  0  0  0  0  0  0  0  0
    5.1900    0.6910    1.1210 H   0  0  0  0  0  0  0  0  0  0  0  0
    7.2490    0.9600    2.4630 H   0  0  0  0  0  0  0  0  0  0  0  0
    5.5320    4.3550    4.4320 H   0  0  0  0  0  0  0  0  0  0  0  0
    7.4220    2.7900    4.1180 H   0  0  0  0  0  0  0  0  0  0  0  0
  1  2  1  0  0  0  0
  1  4  2  0  0  0  0
  1  8  1  0  0  0  0
  2  3  1  0  0  0  0
  2 27  1  0  0  0  0
  3  6  1  0  0  0  0
  3 14  2  0  0  0  0
  4  7  1  0  0  0  0
  5  8  1  0  0  0  0
  5  9  2  0  0  0  0
  5 11  1  0  0  0  0
  6  7  2  0  0  0  0
  6 17  1  0  0  0  0
  7 15  1  0  0  0  0
  8 28  1  0  0  0  0
  9 10  1  0  0  0  0
 10 12  2  0  0  0  0
 10 16  1  0  0  0  0
 11 13  2  0  0  0  0
 12 13  1  0  0  0  0
 12 29  1  0  0  0  0
 13 20  1  0  0  0  0
 15 19  2  0  0  0  0
 15 21  1  0  0  0  0
 16 22  1  0  0  0  0
 16 23  2  0  0  0  0
 17 18  2  0  0  0  0
 17 30  1  0  0  0  0
 18 19  1  0  0  0  0
 18 31  1  0  0  0  0
 19 32  1  0  0  0  0
 20 33  1  0  0  0  0
 20 34  1  0  0  0  0
 20 35  1  0  0  0  0
 21 36  1  0  0  0  0
 21 37  1  0  0  0  0
 21 38  1  0  0  0  0
 22 25  2  0  0  0  0
 22 39  1  0  0  0  0
 23 24  1  0  0  0  0
 23 40  1  0  0  0  0
 24 26  2  0  0  0  0
 24 41  1  0  0  0  0
 25 26  1  0  0  0  0
 25 42  1  0  0  0  0
 26 43  1  0  0  0  0
M  END
>  <$CLUSTER>
753

>  <INDEX>
591741

$$$$
Life Chemicals F1814-1505
  MOE2020           3D

 31 33  0  0  0  0  0  0  0  0999 V2000
    0.7930    0.2150    0.7020 C   0  0  0  0  0  0  0  0  0  0  0  0
    1.5720    0.3600    1.7200 N   0  0  0  0  0  0  0  0  0  0  0  0
   -0.4590   -0.4000    0.7000 N   0  0  0  0  0  0  0  0  0  0  0  0
    1.1850    0.7960   -0.9540 S   0  0  0  0  0  0  0  0  0  0  0  0
   -1.1030   -0.4250   -0.5460 C   0  0  0  0  0  0  0  0  0  0  0  0
   -0.3630    0.1800   -1.5750 C   0  0  0  0  0  0  0  0  0  0  0  0
    2.8570    1.0250    1.5820 C   0  0  0  0  0  0  0  0  0  0  0  0
   -2.3450   -0.9620   -0.8650 C   0  0  0  0  0  0  0  0  0  0  0  0
   -0.8250    0.2580   -2.8820 C   0  0  0  0  0  0  0  0  0  0  0  0
   -2.8330   -0.8960   -2.1720 C   0  0  0  0  0  0  0  0  0  0  0  0
   -2.0740   -0.2870   -3.1770 C   0  0  0  0  0  0  0  0  0  0  0  0
    3.2020    1.4530    0.4870 O   0  0  0  0  0  0  0  0  0  0  0  0
    3.6090    1.1050    2.8210 C   0  0  0  0  0  0  0  0  0  0  0  0
   -3.1040   -1.5540    0.0690 F   0  0  0  0  0  0  0  0  0  0  0  0
   -1.0890   -0.9840    1.8700 C   0  0  0  0  0  0  0  0  0  0  0  0
   -2.4760   -0.1870   -4.4460 F   0  0  0  0  0  0  0  0  0  0  0  0
    4.5640    2.1600    2.8760 C   0  0  0  0  0  0  0  0  0  0  0  0
    3.5140    0.2200    3.8680 C   0  0  0  0  0  0  0  0  0  0  0  0
    5.3640    2.3080    4.0100 C   0  0  0  0  0  0  0  0  0  0  0  0
    4.3180    0.3720    5.0010 C   0  0  0  0  0  0  0  0  0  0  0  0
    5.2400    1.4150    5.0730 C   0  0  0  0  0  0  0  0  0  0  0  0
   -0.2310    0.7290   -3.6510 H   0  0  0  0  0  0  0  0  0  0  0  0
   -3.7990   -1.3170   -2.4080 H   0  0  0  0  0  0  0  0  0  0  0  0
   -0.4340   -0.8640    2.7330 H   0  0  0  0  0  0  0  0  0  0  0  0
   -1.2680   -2.0450    1.6950 H   0  0  0  0  0  0  0  0  0  0  0  0
   -2.0370   -0.4820    2.0610 H   0  0  0  0  0  0  0  0  0  0  0  0
    4.6690    2.8420    2.0450 H   0  0  0  0  0  0  0  0  0  0  0  0
    2.8130   -0.5990    3.8150 H   0  0  0  0  0  0  0  0  0  0  0  0
    6.0800    3.1150    4.0640 H   0  0  0  0  0  0  0  0  0  0  0  0
    4.2250   -0.3210    5.8240 H   0  0  0  0  0  0  0  0  0  0  0  0
    5.8580    1.5310    5.9510 H   0  0  0  0  0  0  0  0  0  0  0  0
  1  2  2  0  0  0  0
  1  3  1  0  0  0  0
  1  4  1  0  0  0  0
  2  7  1  0  0  0  0
  3  5  1  0  0  0  0
  3 15  1  0  0  0  0
  4  6  1  0  0  0  0
  5  6  2  0  0  0  0
  5  8  1  0  0  0  0
  6  9  1  0  0  0  0
  7 12  2  0  0  0  0
  7 13  1  0  0  0  0
  8 10  2  0  0  0  0
  8 14  1  0  0  0  0
  9 11  2  0  0  0  0
  9 22  1  0  0  0  0
 10 11  1  0  0  0  0
 10 23  1  0  0  0  0
 11 16  1  0  0  0  0
 13 17  2  0  0  0  0
 13 18  1  0  0  0  0
 15 24  1  0  0  0  0
 15 25  1  0  0  0  0
 15 26  1  0  0  0  0
 17 19  1  0  0  0  0
 17 27  1  0  0  0  0
 18 20  2  0  0  0  0
 18 28  1  0  0  0  0
 19 21  2  0  0  0  0
 19 29  1  0  0  0  0
 20 21  1  0  0  0  0
 20 30  1  0  0  0  0
 21 31  1  0  0  0  0
M  END
>  <$CLUSTER>
754

>  <INDEX>
297826

$$$$
Chemical Block A0684/0031864
  MOE2020           3D

 49 52  0  0  0  0  0  0  0  0999 V2000
    1.1520    6.1770    5.9970 N   0  0  0  0  0  0  0  0  0  0  0  0
    1.2680    6.0430    4.6750 C   0  0  0  0  0  0  0  0  0  0  0  0
    0.7450    5.0620    6.6060 C   0  0  0  0  0  0  0  0  0  0  0  0
    1.0210    4.9380    3.9680 N   0  0  0  0  0  0  0  0  0  0  0  0
    0.4650    3.8960    6.0180 N   0  0  0  0  0  0  0  0  0  0  0  0
    0.6170    3.8740    4.6840 C   0  0  0  0  0  0  0  0  0  0  0  0
    0.2240    1.0360    0.8320 C   0  0  0  0  0  0  0  0  0  0  0  0
    1.7000    7.1930    3.9430 N   0  0  0  0  0  0  0  0  0  0  0  0
    0.5510    1.2660   -1.3620 N   0  0  0  0  0  0  0  0  0  0  0  0
    0.6040    1.9180   -0.1600 C   0  0  0  0  0  0  0  0  0  0  0  0
   -0.0710   -0.2100    0.1890 C   0  0  0  0  0  0  0  0  0  0  0  0
    0.6070    5.1530    8.0050 N   0  0  0  0  0  0  0  0  0  0  0  0
    0.4460    2.5100    2.6770 N   0  0  0  0  0  0  0  0  0  0  0  0
    0.1430   -0.0340   -1.1800 C   0  0  0  0  0  0  0  0  0  0  0  0
    0.3300    2.6610    4.0410 N   0  0  0  0  0  0  0  0  0  0  0  0
    0.1460    1.3330    2.2420 C   0  0  0  0  0  0  0  0  0  0  0  0
    3.5530    8.9680    2.7500 O   0  0  0  0  0  0  0  0  0  0  0  0
    1.8470    7.1120    2.5000 C   0  0  0  0  0  0  0  0  0  0  0  0
    1.9840    8.4230    4.6620 C   0  0  0  0  0  0  0  0  0  0  0  0
   -0.5010   -1.4750    0.6430 C   0  0  0  0  0  0  0  0  0  0  0  0
    0.2300    3.9800    8.7970 C   0  0  0  0  0  0  0  0  0  0  0  0
    0.8100    6.3950    8.7460 C   0  0  0  0  0  0  0  0  0  0  0  0
    3.4020    8.9000    4.1840 C   0  0  0  0  0  0  0  0  0  0  0  0
    3.2740    7.6770    2.1670 C   0  0  0  0  0  0  0  0  0  0  0  0
   -0.0510   -1.0570   -2.1160 C   0  0  0  0  0  0  0  0  0  0  0  0
   -0.6990   -2.5080   -0.2810 C   0  0  0  0  0  0  0  0  0  0  0  0
   -0.4760   -2.2990   -1.6400 C   0  0  0  0  0  0  0  0  0  0  0  0
    0.7790    1.6800   -2.2540 H   0  0  0  0  0  0  0  0  0  0  0  0
    0.8940    2.9480   -0.0120 H   0  0  0  0  0  0  0  0  0  0  0  0
    0.0290    1.8730    4.5960 H   0  0  0  0  0  0  0  0  0  0  0  0
   -0.1650    0.5660    2.9360 H   0  0  0  0  0  0  0  0  0  0  0  0
    1.0800    7.7110    2.0090 H   0  0  0  0  0  0  0  0  0  0  0  0
    1.7650    6.0760    2.1700 H   0  0  0  0  0  0  0  0  0  0  0  0
    1.9910    8.2390    5.7360 H   0  0  0  0  0  0  0  0  0  0  0  0
    1.2340    9.1780    4.4280 H   0  0  0  0  0  0  0  0  0  0  0  0
   -0.6760   -1.6450    1.6950 H   0  0  0  0  0  0  0  0  0  0  0  0
    0.1080    3.1210    8.1380 H   0  0  0  0  0  0  0  0  0  0  0  0
   -0.7090    4.1770    9.3150 H   0  0  0  0  0  0  0  0  0  0  0  0
    1.0100    3.7690    9.5280 H   0  0  0  0  0  0  0  0  0  0  0  0
    1.0850    7.1900    8.0530 H   0  0  0  0  0  0  0  0  0  0  0  0
    1.6080    6.2570    9.4760 H   0  0  0  0  0  0  0  0  0  0  0  0
   -0.1110    6.6650    9.2620 H   0  0  0  0  0  0  0  0  0  0  0  0
    3.5840    9.8930    4.5940 H   0  0  0  0  0  0  0  0  0  0  0  0
    4.1450    8.2040    4.5730 H   0  0  0  0  0  0  0  0  0  0  0  0
    4.0160    6.9690    2.5350 H   0  0  0  0  0  0  0  0  0  0  0  0
    3.3620    7.7650    1.0840 H   0  0  0  0  0  0  0  0  0  0  0  0
    0.1220   -0.8910   -3.1690 H   0  0  0  0  0  0  0  0  0  0  0  0
   -1.0280   -3.4770    0.0640 H   0  0  0  0  0  0  0  0  0  0  0  0
   -0.6340   -3.1100   -2.3360 H   0  0  0  0  0  0  0  0  0  0  0  0
  1  2  2  0  0  0  0
  1  3  1  0  0  0  0
  2  4  1  0  0  0  0
  2  8  1  0  0  0  0
  3  5  2  0  0  0  0
  3 12  1  0  0  0  0
  4  6  2  0  0  0  0
  5  6  1  0  0  0  0
  6 15  1  0  0  0  0
  7 10  2  0  0  0  0
  7 11  1  0  0  0  0
  7 16  1  0  0  0  0
  8 18  1  0  0  0  0
  8 19  1  0  0  0  0
  9 10  1  0  0  0  0
  9 14  1  0  0  0  0
  9 28  1  0  0  0  0
 10 29  1  0  0  0  0
 11 14  2  0  0  0  0
 11 20  1  0  0  0  0
 12 21  1  0  0  0  0
 12 22  1  0  0  0  0
 13 15  1  0  0  0  0
 13 16  2  0  0  0  0
 14 25  1  0  0  0  0
 15 30  1  0  0  0  0
 16 31  1  0  0  0  0
 17 23  1  0  0  0  0
 17 24  1  0  0  0  0
 18 24  1  0  0  0  0
 18 32  1  0  0  0  0
 18 33  1  0  0  0  0
 19 23  1  0  0  0  0
 19 34  1  0  0  0  0
 19 35  1  0  0  0  0
 20 26  2  0  0  0  0
 20 36  1  0  0  0  0
 21 37  1  0  0  0  0
 21 38  1  0  0  0  0
 21 39  1  0  0  0  0
 22 40  1  0  0  0  0
 22 41  1  0  0  0  0
 22 42  1  0  0  0  0
 23 43  1  0  0  0  0
 23 44  1  0  0  0  0
 24 45  1  0  0  0  0
 24 46  1  0  0  0  0
 25 27  2  0  0  0  0
 25 47  1  0  0  0  0
 26 27  1  0  0  0  0
 26 48  1  0  0  0  0
 27 49  1  0  0  0  0
M  END
>  <$CLUSTER>
755

>  <INDEX>
112700

$$$$
Specs AK-968/11369194
  MOE2020           3D

 40 41  0  0  0  0  0  0  0  0999 V2000
   -0.5240   -4.2170    0.0290 C   0  0  0  0  0  0  0  0  0  0  0  0
   -0.6120    0.4800   -0.7210 C   0  0  0  0  0  0  0  0  0  0  0  0
   -0.0480   -0.5710    0.0280 C   0  0  0  0  0  0  0  0  0  0  0  0
    0.0250   -5.2990    0.6860 N   0  0  0  0  0  0  0  0  0  0  0  0
   -0.4990   -1.8310   -0.2770 O   0  0  0  0  0  0  0  0  0  0  0  0
   -0.2060    1.8000   -0.4710 C   0  0  0  0  0  0  0  0  0  0  0  0
   -1.4080   -4.3290   -0.8280 O   0  0  0  0  0  0  0  0  0  0  0  0
    0.9080   -0.2830    1.0100 C   0  0  0  0  0  0  0  0  0  0  0  0
    0.0500   -2.9170    0.4610 C   0  0  0  0  0  0  0  0  0  0  0  0
   -0.2340   -6.6790    0.5730 C   0  0  0  0  0  0  0  0  0  0  0  0
    0.7470    2.0760    0.5080 C   0  0  0  0  0  0  0  0  0  0  0  0
   -0.6650   -9.4520    0.4380 C   0  0  0  0  0  0  0  0  0  0  0  0
    1.3020    1.0360    1.2470 C   0  0  0  0  0  0  0  0  0  0  0  0
    1.2230    3.6860    0.7920 Cl  0  0  0  0  0  0  0  0  0  0  0  0
   -1.1840   -7.2060   -0.3070 C   0  0  0  0  0  0  0  0  0  0  0  0
    0.4960   -7.5600    1.3850 C   0  0  0  0  0  0  0  0  0  0  0  0
   -1.3970   -8.5870   -0.3720 C   0  0  0  0  0  0  0  0  0  0  0  0
    0.2820   -8.9380    1.3180 C   0  0  0  0  0  0  0  0  0  0  0  0
   -0.7860  -10.8200    0.4620 O   0  0  0  0  0  0  0  0  0  0  0  0
   -1.6410    0.2100   -1.7840 C   0  0  0  0  0  0  0  0  0  0  0  0
   -1.7430  -11.4060   -0.4210 C   0  0  0  0  0  0  0  0  0  0  0  0
   -1.7020  -12.9100   -0.2230 C   0  0  0  0  0  0  0  0  0  0  0  0
    0.7340   -5.0610    1.3640 H   0  0  0  0  0  0  0  0  0  0  0  0
   -0.6360    2.6090   -1.0420 H   0  0  0  0  0  0  0  0  0  0  0  0
    1.3430   -1.0850    1.5870 H   0  0  0  0  0  0  0  0  0  0  0  0
    1.1290   -2.9390    0.3090 H   0  0  0  0  0  0  0  0  0  0  0  0
   -0.1650   -2.7700    1.5190 H   0  0  0  0  0  0  0  0  0  0  0  0
    2.0400    1.2490    2.0060 H   0  0  0  0  0  0  0  0  0  0  0  0
   -1.7560   -6.5440   -0.9400 H   0  0  0  0  0  0  0  0  0  0  0  0
    1.2330   -7.1670    2.0700 H   0  0  0  0  0  0  0  0  0  0  0  0
   -2.1330   -8.9850   -1.0540 H   0  0  0  0  0  0  0  0  0  0  0  0
    0.8510   -9.6050    1.9490 H   0  0  0  0  0  0  0  0  0  0  0  0
   -1.8330   -0.8610   -1.8400 H   0  0  0  0  0  0  0  0  0  0  0  0
   -1.2710    0.5630   -2.7460 H   0  0  0  0  0  0  0  0  0  0  0  0
   -2.5650    0.7320   -1.5360 H   0  0  0  0  0  0  0  0  0  0  0  0
   -1.4930  -11.1620   -1.4530 H   0  0  0  0  0  0  0  0  0  0  0  0
   -2.7390  -11.0290   -0.1900 H   0  0  0  0  0  0  0  0  0  0  0  0
   -0.7030  -13.2800   -0.4560 H   0  0  0  0  0  0  0  0  0  0  0  0
   -2.4280  -13.3830   -0.8840 H   0  0  0  0  0  0  0  0  0  0  0  0
   -1.9450  -13.1470    0.8130 H   0  0  0  0  0  0  0  0  0  0  0  0
  1  4  1  0  0  0  0
  1  7  2  0  0  0  0
  1  9  1  0  0  0  0
  2  3  2  0  0  0  0
  2  6  1  0  0  0  0
  2 20  1  0  0  0  0
  3  5  1  0  0  0  0
  3  8  1  0  0  0  0
  4 10  1  0  0  0  0
  4 23  1  0  0  0  0
  5  9  1  0  0  0  0
  6 11  2  0  0  0  0
  6 24  1  0  0  0  0
  8 13  2  0  0  0  0
  8 25  1  0  0  0  0
  9 26  1  0  0  0  0
  9 27  1  0  0  0  0
 10 15  2  0  0  0  0
 10 16  1  0  0  0  0
 11 13  1  0  0  0  0
 11 14  1  0  0  0  0
 12 17  2  0  0  0  0
 12 18  1  0  0  0  0
 12 19  1  0  0  0  0
 13 28  1  0  0  0  0
 15 17  1  0  0  0  0
 15 29  1  0  0  0  0
 16 18  2  0  0  0  0
 16 30  1  0  0  0  0
 17 31  1  0  0  0  0
 18 32  1  0  0  0  0
 19 21  1  0  0  0  0
 20 33  1  0  0  0  0
 20 34  1  0  0  0  0
 20 35  1  0  0  0  0
 21 22  1  0  0  0  0
 21 36  1  0  0  0  0
 21 37  1  0  0  0  0
 22 38  1  0  0  0  0
 22 39  1  0  0  0  0
 22 40  1  0  0  0  0
M  END
>  <$CLUSTER>
756

>  <INDEX>
502428

$$$$
Specs AG-690/40699372
  MOE2020           3D

 40 42  0  0  0  0  0  0  0  0999 V2000
    0.2020   -0.4920    1.6400 C   0  0  0  0  0  0  0  0  0  0  0  0
    1.3170   -0.6490    0.6770 C   0  0  0  0  0  0  0  0  0  0  0  0
    1.0770   -0.2320   -0.6210 N   0  0  0  0  0  0  0  0  0  0  0  0
   -0.9700    0.0250    1.2660 C   0  0  0  0  0  0  0  0  0  0  0  0
   -0.1490    0.3150   -1.0390 C   0  0  0  0  0  0  0  0  0  0  0  0
   -1.1900    0.4550   -0.1130 C   0  0  0  0  0  0  0  0  0  0  0  0
    2.3850   -1.1280    1.0470 O   0  0  0  0  0  0  0  0  0  0  0  0
   -0.3180    0.7140   -2.3660 C   0  0  0  0  0  0  0  0  0  0  0  0
   -2.4090    0.9980   -0.5260 C   0  0  0  0  0  0  0  0  0  0  0  0
    1.4010   -0.1200    3.8170 N   0  3  0  0  0  0  0  0  0  0  0  0
    0.4180   -0.9510    3.0740 C   0  0  0  0  0  0  0  0  0  0  0  0
   -1.5380    1.2560   -2.7710 C   0  0  0  0  0  0  0  0  0  0  0  0
   -2.5800    1.3980   -1.8530 C   0  0  0  0  0  0  0  0  0  0  0  0
    2.6740    0.4410    5.8000 C   0  0  0  0  0  0  0  0  0  0  0  0
    1.6550   -0.5070    5.2020 C   0  0  0  0  0  0  0  0  0  0  0  0
   -1.7240    1.6840   -4.1900 C   0  0  0  0  0  0  0  0  0  0  0  0
    4.0500    0.1520    5.7440 C   0  0  0  0  0  0  0  0  0  0  0  0
    2.2670    1.6070    6.4760 C   0  0  0  0  0  0  0  0  0  0  0  0
    4.9880    1.0190    6.3070 C   0  0  0  0  0  0  0  0  0  0  0  0
    3.2060    2.4730    7.0390 C   0  0  0  0  0  0  0  0  0  0  0  0
    4.5660    2.1780    6.9560 C   0  0  0  0  0  0  0  0  0  0  0  0
    1.8180   -0.3250   -1.3010 H   0  0  0  0  0  0  0  0  0  0  0  0
   -1.7650    0.1270    1.9900 H   0  0  0  0  0  0  0  0  0  0  0  0
    0.4900    0.6040   -3.0740 H   0  0  0  0  0  0  0  0  0  0  0  0
   -3.2190    1.1080    0.1800 H   0  0  0  0  0  0  0  0  0  0  0  0
    1.0610    0.8310    3.8200 H   0  0  0  0  0  0  0  0  0  0  0  0
    2.2790   -0.1620    3.3190 H   0  0  0  0  0  0  0  0  0  0  0  0
    0.7780   -1.9800    3.0570 H   0  0  0  0  0  0  0  0  0  0  0  0
   -0.5370   -0.9080    3.5980 H   0  0  0  0  0  0  0  0  0  0  0  0
   -3.5230    1.8190   -2.1700 H   0  0  0  0  0  0  0  0  0  0  0  0
    2.0420   -1.5260    5.2320 H   0  0  0  0  0  0  0  0  0  0  0  0
    0.7280   -0.4540    5.7720 H   0  0  0  0  0  0  0  0  0  0  0  0
   -0.8080    1.4960   -4.7490 H   0  0  0  0  0  0  0  0  0  0  0  0
   -1.9570    2.7480   -4.2210 H   0  0  0  0  0  0  0  0  0  0  0  0
   -2.5440    1.1200   -4.6350 H   0  0  0  0  0  0  0  0  0  0  0  0
    4.3850   -0.7530    5.2590 H   0  0  0  0  0  0  0  0  0  0  0  0
    1.2150    1.8340    6.5600 H   0  0  0  0  0  0  0  0  0  0  0  0
    6.0420    0.7920    6.2400 H   0  0  0  0  0  0  0  0  0  0  0  0
    2.8790    3.3720    7.5390 H   0  0  0  0  0  0  0  0  0  0  0  0
    5.2920    2.8470    7.3940 H   0  0  0  0  0  0  0  0  0  0  0  0
  1  2  1  0  0  0  0
  1  4  2  0  0  0  0
  1 11  1  0  0  0  0
  2  3  1  0  0  0  0
  2  7  2  0  0  0  0
  3  5  1  0  0  0  0
  3 22  1  0  0  0  0
  4  6  1  0  0  0  0
  4 23  1  0  0  0  0
  5  6  2  0  0  0  0
  5  8  1  0  0  0  0
  6  9  1  0  0  0  0
  8 12  2  0  0  0  0
  8 24  1  0  0  0  0
  9 13  2  0  0  0  0
  9 25  1  0  0  0  0
 10 11  1  0  0  0  0
 10 15  1  0  0  0  0
 10 26  1  0  0  0  0
 10 27  1  0  0  0  0
 11 28  1  0  0  0  0
 11 29  1  0  0  0  0
 12 13  1  0  0  0  0
 12 16  1  0  0  0  0
 13 30  1  0  0  0  0
 14 15  1  0  0  0  0
 14 17  2  0  0  0  0
 14 18  1  0  0  0  0
 15 31  1  0  0  0  0
 15 32  1  0  0  0  0
 16 33  1  0  0  0  0
 16 34  1  0  0  0  0
 16 35  1  0  0  0  0
 17 19  1  0  0  0  0
 17 36  1  0  0  0  0
 18 20  2  0  0  0  0
 18 37  1  0  0  0  0
 19 21  2  0  0  0  0
 19 38  1  0  0  0  0
 20 21  1  0  0  0  0
 20 39  1  0  0  0  0
 21 40  1  0  0  0  0
M  CHG  1  10   1
M  END
>  <$CLUSTER>
757

>  <INDEX>
497706

$$$$
InterBioScreen STOCK3S-60544
  MOE2020           3D

 41 44  0  0  0  0  0  0  0  0999 V2000
    0.2440    0.1450    0.2010 N   0  0  0  0  0  0  0  0  0  0  0  0
   -0.4360   -2.2010    0.1970 C   0  0  0  0  0  0  0  0  0  0  0  0
   -0.3410   -0.9090   -0.5150 C   0  0  0  0  0  0  0  0  0  0  0  0
    0.9190   -0.0530    1.4120 C   0  0  0  0  0  0  0  0  0  0  0  0
    1.0220   -1.3370    1.8570 N   0  0  0  0  0  0  0  0  0  0  0  0
    0.4270   -2.4520    1.3630 C   0  0  0  0  0  0  0  0  0  0  0  0
   -1.2680   -3.1900   -0.1740 C   0  0  0  0  0  0  0  0  0  0  0  0
   -3.3980   -2.3020   -2.9090 C   0  0  0  0  0  0  0  0  0  0  0  0
   -2.4220   -2.0280   -2.0110 O   0  0  0  0  0  0  0  0  0  0  0  0
   -2.2920   -3.1890   -1.2660 C   0  0  0  0  0  0  0  0  0  0  0  0
   -3.8630   -3.5800   -2.7380 C   0  0  0  0  0  0  0  0  0  0  0  0
    0.1640    1.4800   -0.3520 C   0  0  0  0  0  0  0  0  0  0  0  0
   -3.1200   -4.1190   -1.6630 C   0  0  0  0  0  0  0  0  0  0  0  0
    1.3840    0.8370    2.1240 O   0  0  0  0  0  0  0  0  0  0  0  0
   -0.6940   -0.8390   -1.6930 O   0  0  0  0  0  0  0  0  0  0  0  0
   -3.7320   -1.2050   -3.8390 C   0  0  0  0  0  0  0  0  0  0  0  0
    0.5840   -3.5620    1.8670 O   0  0  0  0  0  0  0  0  0  0  0  0
   -0.9750    1.8990   -1.0650 C   0  0  0  0  0  0  0  0  0  0  0  0
    1.2130    2.4050   -0.1970 C   0  0  0  0  0  0  0  0  0  0  0  0
   -4.7290   -1.3760   -4.8130 C   0  0  0  0  0  0  0  0  0  0  0  0
   -3.0690    0.0310   -3.7780 C   0  0  0  0  0  0  0  0  0  0  0  0
   -4.3840    0.8760   -5.6220 C   0  0  0  0  0  0  0  0  0  0  0  0
   -0.0130    4.0850   -1.4310 C   0  0  0  0  0  0  0  0  0  0  0  0
   -5.0510   -0.3430   -5.6980 C   0  0  0  0  0  0  0  0  0  0  0  0
    1.1250    3.6930   -0.7320 C   0  0  0  0  0  0  0  0  0  0  0  0
   -3.3940    1.0630   -4.6630 C   0  0  0  0  0  0  0  0  0  0  0  0
   -1.0620    3.1880   -1.5970 C   0  0  0  0  0  0  0  0  0  0  0  0
   -0.0160    5.3300   -1.9060 F   0  0  0  0  0  0  0  0  0  0  0  0
   -4.7890    2.1250   -6.7050 Cl  0  0  0  0  0  0  0  0  0  0  0  0
    1.6190   -1.4770    2.6590 H   0  0  0  0  0  0  0  0  0  0  0  0
   -1.1870   -4.1070    0.3910 H   0  0  0  0  0  0  0  0  0  0  0  0
   -4.6370   -4.0730   -3.3070 H   0  0  0  0  0  0  0  0  0  0  0  0
   -3.2180   -5.1110   -1.2480 H   0  0  0  0  0  0  0  0  0  0  0  0
   -1.7970    1.2120   -1.2030 H   0  0  0  0  0  0  0  0  0  0  0  0
    2.1010    2.1150    0.3450 H   0  0  0  0  0  0  0  0  0  0  0  0
   -5.2540   -2.3180   -4.8790 H   0  0  0  0  0  0  0  0  0  0  0  0
   -2.2980    0.1860   -3.0380 H   0  0  0  0  0  0  0  0  0  0  0  0
   -5.8190   -0.4910   -6.4420 H   0  0  0  0  0  0  0  0  0  0  0  0
    1.9430    4.3870   -0.6030 H   0  0  0  0  0  0  0  0  0  0  0  0
   -2.8750    2.0080   -4.6020 H   0  0  0  0  0  0  0  0  0  0  0  0
   -1.9470    3.4880   -2.1390 H   0  0  0  0  0  0  0  0  0  0  0  0
  1  3  1  0  0  0  0
  1  4  1  0  0  0  0
  1 12  1  0  0  0  0
  2  3  1  0  0  0  0
  2  6  1  0  0  0  0
  2  7  2  0  0  0  0
  3 15  2  0  0  0  0
  4  5  1  0  0  0  0
  4 14  2  0  0  0  0
  5  6  1  0  0  0  0
  5 30  1  0  0  0  0
  6 17  2  0  0  0  0
  7 10  1  0  0  0  0
  7 31  1  0  0  0  0
  8  9  1  0  0  0  0
  8 11  2  0  0  0  0
  8 16  1  0  0  0  0
  9 10  1  0  0  0  0
 10 13  2  0  0  0  0
 11 13  1  0  0  0  0
 11 32  1  0  0  0  0
 12 18  1  0  0  0  0
 12 19  2  0  0  0  0
 13 33  1  0  0  0  0
 16 20  2  0  0  0  0
 16 21  1  0  0  0  0
 18 27  2  0  0  0  0
 18 34  1  0  0  0  0
 19 25  1  0  0  0  0
 19 35  1  0  0  0  0
 20 24  1  0  0  0  0
 20 36  1  0  0  0  0
 21 26  2  0  0  0  0
 21 37  1  0  0  0  0
 22 24  2  0  0  0  0
 22 26  1  0  0  0  0
 22 29  1  0  0  0  0
 23 25  2  0  0  0  0
 23 27  1  0  0  0  0
 23 28  1  0  0  0  0
 24 38  1  0  0  0  0
 25 39  1  0  0  0  0
 26 40  1  0  0  0  0
 27 41  1  0  0  0  0
M  END
>  <$CLUSTER>
758

>  <INDEX>
344408

$$$$
Princeton Biomolecular OSSK_563438
  MOE2020           3D

 41 43  0  0  0  0  0  0  0  0999 V2000
    0.6770    2.9400   -5.6370 N   0  0  0  0  0  0  0  0  0  0  0  0
    0.9400    4.8790   -3.7130 N   0  0  0  0  0  0  0  0  0  0  0  0
    0.4160    5.1710   -4.8560 C   0  0  0  0  0  0  0  0  0  0  0  0
    0.2330    4.1890   -5.9560 C   0  0  0  0  0  0  0  0  0  0  0  0
    1.2140    2.7190   -4.4160 C   0  0  0  0  0  0  0  0  0  0  0  0
    1.3690    3.5670   -3.4730 N   0  0  0  0  0  0  0  0  0  0  0  0
   -1.8030    0.2240    1.5400 C   0  0  0  0  0  0  0  0  0  0  0  0
   -0.8730    0.5880    0.5590 C   0  0  0  0  0  0  0  0  0  0  0  0
    1.2470    1.1300   -1.5640 C   0  0  0  0  0  0  0  0  0  0  0  0
    1.0290   -0.0710   -0.9020 N   0  0  0  0  0  0  0  0  0  0  0  0
    1.7230    0.9960   -4.2390 S   0  0  0  0  0  0  0  0  0  0  0  0
   -0.2740    4.5610   -7.0020 O   0  0  0  0  0  0  0  0  0  0  0  0
    0.0710    6.6220   -5.0760 C   0  0  0  0  0  0  0  0  0  0  0  0
    0.0540   -0.3460    0.0860 C   0  0  0  0  0  0  0  0  0  0  0  0
   -1.8160   -1.0700    2.0540 C   0  0  0  0  0  0  0  0  0  0  0  0
    0.6410    2.1880   -1.4280 O   0  0  0  0  0  0  0  0  0  0  0  0
   -0.8970   -2.0070    1.5900 C   0  0  0  0  0  0  0  0  0  0  0  0
    2.3850    1.0120   -2.5460 C   0  0  0  0  0  0  0  0  0  0  0  0
   -2.9220    1.3830    2.1000 Cl  0  0  0  0  0  0  0  0  0  0  0  0
    0.0320   -1.6470    0.6110 C   0  0  0  0  0  0  0  0  0  0  0  0
   -0.6140    7.3050   -4.0670 C   0  0  0  0  0  0  0  0  0  0  0  0
    0.4290    7.2830   -6.2530 C   0  0  0  0  0  0  0  0  0  0  0  0
   -2.8080   -1.4560    3.1000 C   0  0  0  0  0  0  0  0  0  0  0  0
   -0.9600    8.6450   -4.2480 C   0  0  0  0  0  0  0  0  0  0  0  0
    0.0810    8.6230   -6.4280 C   0  0  0  0  0  0  0  0  0  0  0  0
   -0.6150    9.3030   -5.4290 C   0  0  0  0  0  0  0  0  0  0  0  0
    0.6050    2.1870   -6.3060 H   0  0  0  0  0  0  0  0  0  0  0  0
   -0.8710    1.5940    0.1660 H   0  0  0  0  0  0  0  0  0  0  0  0
    1.6370   -0.8370   -1.1550 H   0  0  0  0  0  0  0  0  0  0  0  0
   -0.9020   -3.0120    1.9870 H   0  0  0  0  0  0  0  0  0  0  0  0
    2.9310    0.0870   -2.3600 H   0  0  0  0  0  0  0  0  0  0  0  0
    3.0580    1.8610   -2.4270 H   0  0  0  0  0  0  0  0  0  0  0  0
    0.7420   -2.3790    0.2540 H   0  0  0  0  0  0  0  0  0  0  0  0
   -0.8750    6.7970   -3.1500 H   0  0  0  0  0  0  0  0  0  0  0  0
    0.9730    6.7590   -7.0250 H   0  0  0  0  0  0  0  0  0  0  0  0
   -3.4390   -0.5990    3.3360 H   0  0  0  0  0  0  0  0  0  0  0  0
   -2.2820   -1.7780    3.9990 H   0  0  0  0  0  0  0  0  0  0  0  0
   -3.4270   -2.2730    2.7300 H   0  0  0  0  0  0  0  0  0  0  0  0
   -1.4950    9.1730   -3.4730 H   0  0  0  0  0  0  0  0  0  0  0  0
    0.3510    9.1350   -7.3400 H   0  0  0  0  0  0  0  0  0  0  0  0
   -0.8870   10.3390   -5.5690 H   0  0  0  0  0  0  0  0  0  0  0  0
  1  4  1  0  0  0  0
  1  5  1  0  0  0  0
  1 27  1  0  0  0  0
  2  3  2  0  0  0  0
  2  6  1  0  0  0  0
  3  4  1  0  0  0  0
  3 13  1  0  0  0  0
  4 12  2  0  0  0  0
  5  6  2  0  0  0  0
  5 11  1  0  0  0  0
  7  8  2  0  0  0  0
  7 15  1  0  0  0  0
  7 19  1  0  0  0  0
  8 14  1  0  0  0  0
  8 28  1  0  0  0  0
  9 10  1  0  0  0  0
  9 16  2  0  0  0  0
  9 18  1  0  0  0  0
 10 14  1  0  0  0  0
 10 29  1  0  0  0  0
 11 18  1  0  0  0  0
 13 21  2  0  0  0  0
 13 22  1  0  0  0  0
 14 20  2  0  0  0  0
 15 17  2  0  0  0  0
 15 23  1  0  0  0  0
 17 20  1  0  0  0  0
 17 30  1  0  0  0  0
 18 31  1  0  0  0  0
 18 32  1  0  0  0  0
 20 33  1  0  0  0  0
 21 24  1  0  0  0  0
 21 34  1  0  0  0  0
 22 25  2  0  0  0  0
 22 35  1  0  0  0  0
 23 36  1  0  0  0  0
 23 37  1  0  0  0  0
 23 38  1  0  0  0  0
 24 26  2  0  0  0  0
 24 39  1  0  0  0  0
 25 26  1  0  0  0  0
 25 40  1  0  0  0  0
 26 41  1  0  0  0  0
M  END
>  <$CLUSTER>
759

>  <INDEX>
589828

$$$$
Labotest LT01411472
  MOE2020           3D

 28 29  0  0  0  0  0  0  0  0999 V2000
    0.3620    0.6510   -0.0820 N   0  3  0  0  0  0  0  0  0  0  0  0
   -0.2920   -0.6470    0.0810 C   0  0  0  0  0  0  0  0  0  0  0  0
    1.6040    0.6970   -0.1070 O   0  5  0  0  0  0  0  0  0  0  0  0
   -0.3660    1.6520   -0.1880 O   0  0  0  0  0  0  0  0  0  0  0  0
    0.4780   -1.7400    0.1970 C   0  0  0  0  0  0  0  0  0  0  0  0
    1.0110   -4.9930   -1.1270 S   0  0  0  0  0  0  0  0  0  0  0  0
   -0.1930   -3.0030    0.3600 C   0  0  0  0  0  0  0  0  0  0  0  0
    0.6240   -4.2650    0.4880 C   0  0  0  0  0  0  0  0  0  0  0  0
    2.2170   -3.7800   -1.7370 C   0  0  0  0  0  0  0  0  0  0  0  0
   -1.7850   -0.6130    0.1000 C   0  0  0  0  0  0  0  0  0  0  0  0
   -2.3510   -1.8850    0.2550 C   0  0  0  0  0  0  0  0  0  0  0  0
   -1.5970   -3.0530    0.3800 C   0  0  0  0  0  0  0  0  0  0  0  0
    2.0480   -2.4080   -1.5910 C   0  0  0  0  0  0  0  0  0  0  0  0
    3.3330   -4.2690   -2.4330 C   0  0  0  0  0  0  0  0  0  0  0  0
    4.2830   -3.3820   -2.9450 C   0  0  0  0  0  0  0  0  0  0  0  0
    2.9990   -1.5230   -2.1050 C   0  0  0  0  0  0  0  0  0  0  0  0
    4.1160   -2.0100   -2.7780 C   0  0  0  0  0  0  0  0  0  0  0  0
    1.5560   -1.6750    0.1690 H   0  0  0  0  0  0  0  0  0  0  0  0
    1.5570   -4.0290    1.0000 H   0  0  0  0  0  0  0  0  0  0  0  0
    0.0610   -4.9910    1.0750 H   0  0  0  0  0  0  0  0  0  0  0  0
   -2.3650    0.2930    0.0050 H   0  0  0  0  0  0  0  0  0  0  0  0
   -3.4280   -1.9660    0.2790 H   0  0  0  0  0  0  0  0  0  0  0  0
   -2.0970   -4.0030    0.4930 H   0  0  0  0  0  0  0  0  0  0  0  0
    1.1780   -2.0250   -1.0780 H   0  0  0  0  0  0  0  0  0  0  0  0
    3.4580   -5.3330   -2.5730 H   0  0  0  0  0  0  0  0  0  0  0  0
    5.1470   -3.7610   -3.4710 H   0  0  0  0  0  0  0  0  0  0  0  0
    2.8670   -0.4580   -1.9800 H   0  0  0  0  0  0  0  0  0  0  0  0
    4.8520   -1.3240   -3.1700 H   0  0  0  0  0  0  0  0  0  0  0  0
  1  2  1  0  0  0  0
  1  3  1  0  0  0  0
  1  4  2  0  0  0  0
  2  5  2  0  0  0  0
  2 10  1  0  0  0  0
  5  7  1  0  0  0  0
  5 18  1  0  0  0  0
  6  8  1  0  0  0  0
  6  9  1  0  0  0  0
  7  8  1  0  0  0  0
  7 12  2  0  0  0  0
  8 19  1  0  0  0  0
  8 20  1  0  0  0  0
  9 13  1  0  0  0  0
  9 14  2  0  0  0  0
 10 11  2  0  0  0  0
 10 21  1  0  0  0  0
 11 12  1  0  0  0  0
 11 22  1  0  0  0  0
 12 23  1  0  0  0  0
 13 16  2  0  0  0  0
 13 24  1  0  0  0  0
 14 15  1  0  0  0  0
 14 25  1  0  0  0  0
 15 17  2  0  0  0  0
 15 26  1  0  0  0  0
 16 17  1  0  0  0  0
 16 27  1  0  0  0  0
 17 28  1  0  0  0  0
M  CHG  1   1   1
M  CHG  1   3  -1
M  END
>  <$CLUSTER>
760

>  <INDEX>
322985

$$$$
Specs AK-968/12865832
  MOE2020           3D

 36 38  0  0  0  0  0  0  0  0999 V2000
    0.3570    0.3250   -0.1540 C   0  0  0  0  0  0  0  0  0  0  0  0
    0.3410    0.4970    1.1470 N   0  0  0  0  0  0  0  0  0  0  0  0
    1.2800    1.4530    1.4810 C   0  0  0  0  0  0  0  0  0  0  0  0
   -0.4050   -0.5220   -0.9260 N   0  0  0  0  0  0  0  0  0  0  0  0
    1.4680    1.2740   -1.0400 S   0  0  0  0  0  0  0  0  0  0  0  0
    1.9910    1.9900    0.4280 C   0  0  0  0  0  0  0  0  0  0  0  0
   -1.3530   -1.3590   -0.3610 C   0  0  0  0  0  0  0  0  0  0  0  0
    1.4730    1.8430    2.8810 C   0  0  0  0  0  0  0  0  0  0  0  0
   -1.6290   -1.4670    0.8310 O   0  0  0  0  0  0  0  0  0  0  0  0
    0.4440    1.6190    3.8100 C   0  0  0  0  0  0  0  0  0  0  0  0
    2.6650    2.4300    3.3320 C   0  0  0  0  0  0  0  0  0  0  0  0
   -2.9770   -3.0930   -0.8310 O   0  0  0  0  0  0  0  0  0  0  0  0
   -2.0510   -2.1910   -1.4060 C   0  0  0  0  0  0  0  0  0  0  0  0
   -3.6860   -3.9100   -1.6310 C   0  0  0  0  0  0  0  0  0  0  0  0
    1.7890    2.5650    5.5830 C   0  0  0  0  0  0  0  0  0  0  0  0
   -5.2750   -5.7060   -3.0800 C   0  0  0  0  0  0  0  0  0  0  0  0
    2.8200    2.7890    4.6740 C   0  0  0  0  0  0  0  0  0  0  0  0
    0.6020    1.9790    5.1510 C   0  0  0  0  0  0  0  0  0  0  0  0
    1.9720    3.0350    7.3630 Br  0  0  0  0  0  0  0  0  0  0  0  0
   -6.0610   -6.5850   -3.7010 F   0  0  0  0  0  0  0  0  0  0  0  0
   -3.5970   -3.9610   -3.0240 C   0  0  0  0  0  0  0  0  0  0  0  0
   -4.5750   -4.7650   -0.9700 C   0  0  0  0  0  0  0  0  0  0  0  0
   -4.3910   -4.8580   -3.7450 C   0  0  0  0  0  0  0  0  0  0  0  0
   -5.3670   -5.6600   -1.6910 C   0  0  0  0  0  0  0  0  0  0  0  0
   -0.2700   -0.5340   -1.9270 H   0  0  0  0  0  0  0  0  0  0  0  0
    2.7590    2.7450    0.5150 H   0  0  0  0  0  0  0  0  0  0  0  0
   -0.4800    1.1640    3.4850 H   0  0  0  0  0  0  0  0  0  0  0  0
    3.4710    2.6060    2.6350 H   0  0  0  0  0  0  0  0  0  0  0  0
   -1.3040   -2.7590   -1.9610 H   0  0  0  0  0  0  0  0  0  0  0  0
   -2.5830   -1.5270   -2.0880 H   0  0  0  0  0  0  0  0  0  0  0  0
    3.7420    3.2420    5.0070 H   0  0  0  0  0  0  0  0  0  0  0  0
   -0.1990    1.8020    5.8540 H   0  0  0  0  0  0  0  0  0  0  0  0
   -2.9140   -3.3070   -3.5450 H   0  0  0  0  0  0  0  0  0  0  0  0
   -4.6490   -4.7320    0.1070 H   0  0  0  0  0  0  0  0  0  0  0  0
   -4.3190   -4.8940   -4.8220 H   0  0  0  0  0  0  0  0  0  0  0  0
   -6.0500   -6.3160   -1.1720 H   0  0  0  0  0  0  0  0  0  0  0  0
  1  2  2  0  0  0  0
  1  4  1  0  0  0  0
  1  5  1  0  0  0  0
  2  3  1  0  0  0  0
  3  6  2  0  0  0  0
  3  8  1  0  0  0  0
  4  7  1  0  0  0  0
  4 25  1  0  0  0  0
  5  6  1  0  0  0  0
  6 26  1  0  0  0  0
  7  9  2  0  0  0  0
  7 13  1  0  0  0  0
  8 10  1  0  0  0  0
  8 11  2  0  0  0  0
 10 18  2  0  0  0  0
 10 27  1  0  0  0  0
 11 17  1  0  0  0  0
 11 28  1  0  0  0  0
 12 13  1  0  0  0  0
 12 14  1  0  0  0  0
 13 29  1  0  0  0  0
 13 30  1  0  0  0  0
 14 21  2  0  0  0  0
 14 22  1  0  0  0  0
 15 17  2  0  0  0  0
 15 18  1  0  0  0  0
 15 19  1  0  0  0  0
 16 20  1  0  0  0  0
 16 23  2  0  0  0  0
 16 24  1  0  0  0  0
 17 31  1  0  0  0  0
 18 32  1  0  0  0  0
 21 23  1  0  0  0  0
 21 33  1  0  0  0  0
 22 24  2  0  0  0  0
 22 34  1  0  0  0  0
 23 35  1  0  0  0  0
 24 36  1  0  0  0  0
M  END
>  <$CLUSTER>
761

>  <INDEX>
502896

$$$$
Specs AJ-333/25006129
  MOE2020           3D

 27 28  0  0  0  0  0  0  0  0999 V2000
    0.7550   -1.2070   -1.1420 N   0  3  0  0  0  0  0  0  0  0  0  0
   -0.1890   -0.4880   -0.3250 C   0  0  0  0  0  0  0  0  0  0  0  0
    0.6420    5.1200   -1.9300 C   0  0  0  0  0  0  0  0  0  0  0  0
    0.2230    0.4610    0.6140 C   0  0  0  0  0  0  0  0  0  0  0  0
    1.9410    0.8320    0.9440 S   0  0  0  0  0  0  0  0  0  0  0  0
    1.3630    4.5360   -0.7600 C   0  0  0  0  0  0  0  0  0  0  0  0
    1.2850   -0.5830   -2.0700 O   0  5  0  0  0  0  0  0  0  0  0  0
    0.9480   -2.3960   -0.8590 O   0  0  0  0  0  0  0  0  0  0  0  0
    1.3000    3.1620   -0.5160 C   0  0  0  0  0  0  0  0  0  0  0  0
    1.9520    2.6080    0.5790 C   0  0  0  0  0  0  0  0  0  0  0  0
   -2.5100   -0.1470    0.1930 N   0  0  0  0  0  0  0  0  0  0  0  0
   -0.0450    4.2330   -2.6950 F   0  0  0  0  0  0  0  0  0  0  0  0
   -0.2550    6.0530   -1.5180 F   0  0  0  0  0  0  0  0  0  0  0  0
    1.5130    5.7520   -2.7580 F   0  0  0  0  0  0  0  0  0  0  0  0
   -1.5370   -0.7630   -0.5090 C   0  0  0  0  0  0  0  0  0  0  0  0
   -0.7790    1.0970    1.3530 C   0  0  0  0  0  0  0  0  0  0  0  0
   -2.1060    0.7650    1.1060 C   0  0  0  0  0  0  0  0  0  0  0  0
    2.0970    5.3640    0.0860 C   0  0  0  0  0  0  0  0  0  0  0  0
    2.7730    4.8190    1.1740 C   0  0  0  0  0  0  0  0  0  0  0  0
    2.7120    3.4450    1.4200 C   0  0  0  0  0  0  0  0  0  0  0  0
    0.7400    2.5250   -1.1840 H   0  0  0  0  0  0  0  0  0  0  0  0
   -1.8190   -1.5010   -1.2450 H   0  0  0  0  0  0  0  0  0  0  0  0
   -0.5270    1.8330    2.1020 H   0  0  0  0  0  0  0  0  0  0  0  0
   -2.8670    1.2700    1.6830 H   0  0  0  0  0  0  0  0  0  0  0  0
    2.1420    6.4270   -0.1020 H   0  0  0  0  0  0  0  0  0  0  0  0
    3.3450    5.4590    1.8290 H   0  0  0  0  0  0  0  0  0  0  0  0
    3.2490    3.0230    2.2570 H   0  0  0  0  0  0  0  0  0  0  0  0
  1  2  1  0  0  0  0
  1  7  1  0  0  0  0
  1  8  2  0  0  0  0
  2  4  1  0  0  0  0
  2 15  2  0  0  0  0
  3  6  1  0  0  0  0
  3 12  1  0  0  0  0
  3 13  1  0  0  0  0
  3 14  1  0  0  0  0
  4  5  1  0  0  0  0
  4 16  2  0  0  0  0
  5 10  1  0  0  0  0
  6  9  2  0  0  0  0
  6 18  1  0  0  0  0
  9 10  1  0  0  0  0
  9 21  1  0  0  0  0
 10 20  2  0  0  0  0
 11 15  1  0  0  0  0
 11 17  2  0  0  0  0
 15 22  1  0  0  0  0
 16 17  1  0  0  0  0
 16 23  1  0  0  0  0
 17 24  1  0  0  0  0
 18 19  2  0  0  0  0
 18 25  1  0  0  0  0
 19 20  1  0  0  0  0
 19 26  1  0  0  0  0
 20 27  1  0  0  0  0
M  CHG  1   1   1
M  CHG  1   7  -1
M  END
>  <$CLUSTER>
762

>  <INDEX>
501173

$$$$
Chem T&I NSB 0020136
  MOE2020           3D

 32 33  0  0  0  0  0  0  0  0999 V2000
   -0.1140    0.1190    0.0850 C   0  0  0  0  0  0  0  0  0  0  0  0
    0.6240    1.1550    0.7630 C   0  0  0  0  0  0  0  0  0  0  0  0
    0.4470   -0.5150   -0.9890 O   0  0  0  0  0  0  0  0  0  0  0  0
    2.7610    2.3890    0.7530 N   0  0  0  0  0  0  0  0  0  0  0  0
    1.8730    1.4110    0.2360 N   0  0  0  0  0  0  0  0  0  0  0  0
   -1.3720   -0.4000    0.3230 C   0  0  0  0  0  0  0  0  0  0  0  0
   -0.4530   -1.4310   -1.4270 C   0  0  0  0  0  0  0  0  0  0  0  0
   -1.5890   -1.4010   -0.6550 C   0  0  0  0  0  0  0  0  0  0  0  0
    3.9170    2.4820    0.3070 C   0  0  0  0  0  0  0  0  0  0  0  0
    4.8130    3.5140    0.9500 C   0  0  0  0  0  0  0  0  0  0  0  0
    0.1890    1.7710    1.7340 O   0  0  0  0  0  0  0  0  0  0  0  0
    4.4300    4.1380    2.1350 C   0  0  0  0  0  0  0  0  0  0  0  0
    6.0560    3.8850    0.3660 C   0  0  0  0  0  0  0  0  0  0  0  0
    6.4570    5.4520    2.1670 C   0  0  0  0  0  0  0  0  0  0  0  0
    5.2400    5.1000    2.7460 C   0  0  0  0  0  0  0  0  0  0  0  0
    6.8650    4.8480    0.9790 C   0  0  0  0  0  0  0  0  0  0  0  0
    7.5480    6.7200    2.9600 Br  0  0  0  0  0  0  0  0  0  0  0  0
   -0.1700   -2.2590   -2.5370 C   0  0  0  0  0  0  0  0  0  0  0  0
    4.5140    1.6500   -0.8060 C   0  0  0  0  0  0  0  0  0  0  0  0
    2.1720    0.8710   -0.5640 H   0  0  0  0  0  0  0  0  0  0  0  0
   -2.0570   -0.1010    1.1030 H   0  0  0  0  0  0  0  0  0  0  0  0
   -2.4690   -2.0160   -0.7710 H   0  0  0  0  0  0  0  0  0  0  0  0
    3.4880    3.8730    2.5910 H   0  0  0  0  0  0  0  0  0  0  0  0
    6.3770    3.4210   -0.5550 H   0  0  0  0  0  0  0  0  0  0  0  0
    4.9230    5.5690    3.6650 H   0  0  0  0  0  0  0  0  0  0  0  0
    7.8080    5.1240    0.5310 H   0  0  0  0  0  0  0  0  0  0  0  0
    0.8230   -2.0250   -2.9210 H   0  0  0  0  0  0  0  0  0  0  0  0
   -0.9110   -2.0860   -3.3170 H   0  0  0  0  0  0  0  0  0  0  0  0
   -0.2040   -3.3040   -2.2290 H   0  0  0  0  0  0  0  0  0  0  0  0
    5.5450    1.9590   -0.9770 H   0  0  0  0  0  0  0  0  0  0  0  0
    3.9350    1.7940   -1.7180 H   0  0  0  0  0  0  0  0  0  0  0  0
    4.4920    0.5970   -0.5250 H   0  0  0  0  0  0  0  0  0  0  0  0
  1  2  1  0  0  0  0
  1  3  1  0  0  0  0
  1  6  2  0  0  0  0
  2  5  1  0  0  0  0
  2 11  2  0  0  0  0
  3  7  1  0  0  0  0
  4  5  1  0  0  0  0
  4  9  2  0  0  0  0
  5 20  1  0  0  0  0
  6  8  1  0  0  0  0
  6 21  1  0  0  0  0
  7  8  2  0  0  0  0
  7 18  1  0  0  0  0
  8 22  1  0  0  0  0
  9 10  1  0  0  0  0
  9 19  1  0  0  0  0
 10 12  2  0  0  0  0
 10 13  1  0  0  0  0
 12 15  1  0  0  0  0
 12 23  1  0  0  0  0
 13 16  2  0  0  0  0
 13 24  1  0  0  0  0
 14 15  2  0  0  0  0
 14 16  1  0  0  0  0
 14 17  1  0  0  0  0
 15 25  1  0  0  0  0
 16 26  1  0  0  0  0
 18 27  1  0  0  0  0
 18 28  1  0  0  0  0
 18 29  1  0  0  0  0
 19 30  1  0  0  0  0
 19 31  1  0  0  0  0
 19 32  1  0  0  0  0
M  END
>  <$CLUSTER>
763

>  <INDEX>
568767

$$$$
Specs AK-968/37032063
  MOE2020           3D

 47 49  0  0  0  0  0  0  0  0999 V2000
    1.5910   -1.3810    1.8120 N   0  0  0  0  0  0  0  0  0  0  0  0
   -0.6710    0.3290   -0.5520 C   0  0  0  0  0  0  0  0  0  0  0  0
    1.9890   -2.6040    1.9020 C   0  0  0  0  0  0  0  0  0  0  0  0
   -1.0710   -0.7730   -1.5020 C   0  0  0  0  0  0  0  0  0  0  0  0
    0.7320   -1.1700    0.7950 N   0  0  0  0  0  0  0  0  0  0  0  0
    0.1880    0.1060    0.5520 C   0  0  0  0  0  0  0  0  0  0  0  0
    3.0110   -2.9020    2.9960 C   0  0  0  0  0  0  0  0  0  0  0  0
    1.5720   -3.7490    1.0710 C   0  0  0  0  0  0  0  0  0  0  0  0
   -1.1590   -0.4650   -2.7320 O   0  0  0  0  0  0  0  0  0  0  0  0
    2.4700   -4.3020    0.1560 C   0  0  0  0  0  0  0  0  0  0  0  0
    3.1500   -4.1840    3.5420 C   0  0  0  0  0  0  0  0  0  0  0  0
    3.8150   -1.8600    3.4740 C   0  0  0  0  0  0  0  0  0  0  0  0
    0.2720   -4.2450    1.1960 C   0  0  0  0  0  0  0  0  0  0  0  0
   -1.2970   -1.9190   -1.0040 O   0  5  0  0  0  0  0  0  0  0  0  0
    0.7600   -5.8700   -0.5270 C   0  0  0  0  0  0  0  0  0  0  0  0
    4.8930   -3.3790    5.0150 C   0  0  0  0  0  0  0  0  0  0  0  0
    4.7540   -2.1010    4.4790 C   0  0  0  0  0  0  0  0  0  0  0  0
   -0.1300   -5.3100    0.3910 C   0  0  0  0  0  0  0  0  0  0  0  0
    2.0580   -5.3670   -0.6440 C   0  0  0  0  0  0  0  0  0  0  0  0
    4.0910   -4.4180    4.5480 C   0  0  0  0  0  0  0  0  0  0  0  0
   -1.1760    1.6230   -0.7860 C   0  0  0  0  0  0  0  0  0  0  0  0
    0.2410   -6.9180   -1.2630 O   0  0  0  0  0  0  0  0  0  0  0  0
    5.8490   -3.4880    5.9990 O   0  0  0  0  0  0  0  0  0  0  0  0
    0.5030    1.1990    1.3840 C   0  0  0  0  0  0  0  0  0  0  0  0
    1.1050   -7.5280   -2.2150 C   0  0  0  0  0  0  0  0  0  0  0  0
    6.0310   -4.7730    6.5810 C   0  0  0  0  0  0  0  0  0  0  0  0
   -0.8490    2.6860    0.0530 C   0  0  0  0  0  0  0  0  0  0  0  0
   -0.0100    2.4740    1.1380 C   0  0  0  0  0  0  0  0  0  0  0  0
    0.4740   -1.9410    0.1960 H   0  0  0  0  0  0  0  0  0  0  0  0
    3.4720   -3.9090    0.0690 H   0  0  0  0  0  0  0  0  0  0  0  0
    2.5290   -4.9930    3.1850 H   0  0  0  0  0  0  0  0  0  0  0  0
    3.7090   -0.8670    3.0640 H   0  0  0  0  0  0  0  0  0  0  0  0
   -0.4130   -3.8090    1.9080 H   0  0  0  0  0  0  0  0  0  0  0  0
    5.3740   -1.2940    4.8420 H   0  0  0  0  0  0  0  0  0  0  0  0
   -1.1320   -5.7030    0.4780 H   0  0  0  0  0  0  0  0  0  0  0  0
    2.7430   -5.8040   -1.3550 H   0  0  0  0  0  0  0  0  0  0  0  0
    4.1970   -5.4080    4.9650 H   0  0  0  0  0  0  0  0  0  0  0  0
   -1.8280    1.7940   -1.6300 H   0  0  0  0  0  0  0  0  0  0  0  0
    1.1560    1.0470    2.2310 H   0  0  0  0  0  0  0  0  0  0  0  0
    0.5750   -8.3340   -2.7220 H   0  0  0  0  0  0  0  0  0  0  0  0
    1.9800   -7.9320   -1.7050 H   0  0  0  0  0  0  0  0  0  0  0  0
    1.4220   -6.7850   -2.9460 H   0  0  0  0  0  0  0  0  0  0  0  0
    6.8110   -4.7210    7.3400 H   0  0  0  0  0  0  0  0  0  0  0  0
    6.3230   -5.4840    5.8080 H   0  0  0  0  0  0  0  0  0  0  0  0
    5.0980   -5.0990    7.0410 H   0  0  0  0  0  0  0  0  0  0  0  0
   -1.2470    3.6710   -0.1400 H   0  0  0  0  0  0  0  0  0  0  0  0
    0.2460    3.2950    1.7920 H   0  0  0  0  0  0  0  0  0  0  0  0
  1  3  2  0  0  0  0
  1  5  1  0  0  0  0
  2  4  1  0  0  0  0
  2  6  2  0  0  0  0
  2 21  1  0  0  0  0
  3  7  1  0  0  0  0
  3  8  1  0  0  0  0
  4  9  2  0  0  0  0
  4 14  1  0  0  0  0
  5  6  1  0  0  0  0
  5 29  1  0  0  0  0
  6 24  1  0  0  0  0
  7 11  1  0  0  0  0
  7 12  2  0  0  0  0
  8 10  1  0  0  0  0
  8 13  2  0  0  0  0
 10 19  2  0  0  0  0
 10 30  1  0  0  0  0
 11 20  2  0  0  0  0
 11 31  1  0  0  0  0
 12 17  1  0  0  0  0
 12 32  1  0  0  0  0
 13 18  1  0  0  0  0
 13 33  1  0  0  0  0
 15 18  2  0  0  0  0
 15 19  1  0  0  0  0
 15 22  1  0  0  0  0
 16 17  2  0  0  0  0
 16 20  1  0  0  0  0
 16 23  1  0  0  0  0
 17 34  1  0  0  0  0
 18 35  1  0  0  0  0
 19 36  1  0  0  0  0
 20 37  1  0  0  0  0
 21 27  2  0  0  0  0
 21 38  1  0  0  0  0
 22 25  1  0  0  0  0
 23 26  1  0  0  0  0
 24 28  2  0  0  0  0
 24 39  1  0  0  0  0
 25 40  1  0  0  0  0
 25 41  1  0  0  0  0
 25 42  1  0  0  0  0
 26 43  1  0  0  0  0
 26 44  1  0  0  0  0
 26 45  1  0  0  0  0
 27 28  1  0  0  0  0
 27 46  1  0  0  0  0
 28 47  1  0  0  0  0
M  CHG  1  14  -1
M  END
>  <$CLUSTER>
764

>  <INDEX>
503332

$$$$
Specs AK-968/37053096
  MOE2020           3D

 37 39  0  0  1  0  0  0  0  0999 V2000
   -1.2020    0.7680    1.7300 N   0  0  0  0  0  0  0  0  0  0  0  0
   -1.8840    1.4150    2.7580 C   0  0  0  0  0  0  0  0  0  0  0  0
   -0.3850    0.4710   -0.2140 C   0  0  0  0  0  0  0  0  0  0  0  0
   -1.0630    1.3230    0.4930 N   0  0  0  0  0  0  0  0  0  0  0  0
   -0.6090   -0.4790    1.8800 C   0  0  0  0  0  0  0  0  0  0  0  0
    0.0050   -0.7730    0.5370 C   0  0  3  0  0  0  0  0  0  0  0  0
   -2.0590    0.9530    3.9780 N   0  0  0  0  0  0  0  0  0  0  0  0
   -2.5780    2.9560    2.4450 S   0  0  0  0  0  0  0  0  0  0  0  0
   -0.0170    0.6820   -1.6390 C   0  0  0  0  0  0  0  0  0  0  0  0
   -2.7830    1.8650    4.7190 C   0  0  0  0  0  0  0  0  0  0  0  0
   -3.1550    3.0140    4.0560 C   0  0  0  0  0  0  0  0  0  0  0  0
   -0.5690   -1.1840    2.8730 O   0  0  0  0  0  0  0  0  0  0  0  0
    1.4840   -0.9980    0.6060 C   0  0  0  0  0  0  0  0  0  0  0  0
    2.0220   -2.0630    0.1140 N   0  0  0  0  0  0  0  0  0  0  0  0
   -0.3510   -0.3850   -2.4090 F   0  0  0  0  0  0  0  0  0  0  0  0
   -0.6320    1.7630   -2.1800 F   0  0  0  0  0  0  0  0  0  0  0  0
    1.3180    0.8740   -1.7920 F   0  0  0  0  0  0  0  0  0  0  0  0
   -3.1610    1.7020    6.0800 C   0  0  0  0  0  0  0  0  0  0  0  0
   -3.9000    4.0370    4.6860 C   0  0  0  0  0  0  0  0  0  0  0  0
    3.4720   -2.1030    0.2760 C   0  0  0  0  0  0  0  0  0  0  0  0
    3.9860   -3.3930   -0.3380 C   0  0  0  0  0  0  0  0  0  0  0  0
   -3.8980    2.7070    6.7140 C   0  0  0  0  0  0  0  0  0  0  0  0
   -4.2610    3.8590    6.0240 C   0  0  0  0  0  0  0  0  0  0  0  0
    5.5150   -3.4940   -0.1870 C   0  0  0  0  0  0  0  0  0  0  0  0
   -0.3350   -1.6980    0.0710 H   0  0  0  0  0  0  0  0  0  0  0  0
    2.1120   -0.2560    1.0760 H   0  0  0  0  0  0  0  0  0  0  0  0
   -2.8810    0.8090    6.6200 H   0  0  0  0  0  0  0  0  0  0  0  0
   -4.1820    4.9300    4.1490 H   0  0  0  0  0  0  0  0  0  0  0  0
    3.7250   -2.0730    1.3360 H   0  0  0  0  0  0  0  0  0  0  0  0
    3.9230   -1.2490   -0.2300 H   0  0  0  0  0  0  0  0  0  0  0  0
    3.7290   -3.4130   -1.3970 H   0  0  0  0  0  0  0  0  0  0  0  0
    3.5200   -4.2400    0.1650 H   0  0  0  0  0  0  0  0  0  0  0  0
   -4.1880    2.5880    7.7480 H   0  0  0  0  0  0  0  0  0  0  0  0
   -4.8290    4.6260    6.5290 H   0  0  0  0  0  0  0  0  0  0  0  0
    5.9860   -2.6490   -0.6890 H   0  0  0  0  0  0  0  0  0  0  0  0
    5.8640   -4.4240   -0.6360 H   0  0  0  0  0  0  0  0  0  0  0  0
    5.7770   -3.4810    0.8710 H   0  0  0  0  0  0  0  0  0  0  0  0
  1  2  1  0  0  0  0
  1  4  1  0  0  0  0
  1  5  1  0  0  0  0
  2  7  2  0  0  0  0
  2  8  1  0  0  0  0
  3  4  2  0  0  0  0
  3  6  1  0  0  0  0
  3  9  1  0  0  0  0
  5  6  1  0  0  0  0
  5 12  2  0  0  0  0
  6 13  1  0  0  0  0
  6 25  1  0  0  0  0
  7 10  1  0  0  0  0
  8 11  1  0  0  0  0
  9 15  1  0  0  0  0
  9 16  1  0  0  0  0
  9 17  1  0  0  0  0
 10 11  2  0  0  0  0
 10 18  1  0  0  0  0
 11 19  1  0  0  0  0
 13 14  2  0  0  0  0
 13 26  1  0  0  0  0
 14 20  1  0  0  0  0
 18 22  2  0  0  0  0
 18 27  1  0  0  0  0
 19 23  2  0  0  0  0
 19 28  1  0  0  0  0
 20 21  1  0  0  0  0
 20 29  1  0  0  0  0
 20 30  1  0  0  0  0
 21 24  1  0  0  0  0
 21 31  1  0  0  0  0
 21 32  1  0  0  0  0
 22 23  1  0  0  0  0
 22 33  1  0  0  0  0
 23 34  1  0  0  0  0
 24 35  1  0  0  0  0
 24 36  1  0  0  0  0
 24 37  1  0  0  0  0
M  END
>  <$CLUSTER>
765

>  <INDEX>
503343

$$$$
Chemdiv 2858-0009
  MOE2020           3D

 49 51  0  0  1  0  0  0  0  0999 V2000
    0.1020    0.3320   -0.7520 C   0  0  0  0  0  0  0  0  0  0  0  0
    1.2300   -0.1200   -0.0690 C   0  0  0  0  0  0  0  0  0  0  0  0
   -1.0570    0.3270    0.1200 C   0  0  0  0  0  0  0  0  0  0  0  0
    0.9030   -0.4940    1.5560 S   0  0  0  0  0  0  0  0  0  0  0  0
   -0.7290   -0.0780    1.4000 C   0  0  0  0  0  0  0  0  0  0  0  0
    2.5130   -0.2620   -0.5880 N   0  0  0  0  0  0  0  0  0  0  0  0
    3.6460   -0.7070    0.0820 C   0  0  0  0  0  0  0  0  0  0  0  0
    0.1480    0.7390   -2.1590 C   0  0  0  0  0  0  0  0  0  0  0  0
   -2.4690    0.7240   -0.2250 C   0  0  0  0  0  0  0  0  0  0  0  0
    4.8430   -0.7150   -0.8380 C   0  0  0  0  0  0  0  0  0  0  0  0
   -1.6790   -0.1960    2.5510 C   0  0  0  0  0  0  0  0  0  0  0  0
    3.7570   -1.0650    1.2500 O   0  0  0  0  0  0  0  0  0  0  0  0
    1.0990    0.5430   -2.9060 O   0  0  0  0  0  0  0  0  0  0  0  0
    6.1210   -0.6260   -0.2010 C   0  0  0  0  0  0  0  0  0  0  0  0
    4.7870   -0.8670   -2.2040 C   0  0  0  0  0  0  0  0  0  0  0  0
   -0.9680    1.3880   -2.5840 O   0  0  0  0  0  0  0  0  0  0  0  0
    7.2000   -0.7820   -2.3580 C   0  0  0  0  0  0  0  0  0  0  0  0
    5.9540   -0.8920   -2.9720 C   0  0  0  0  0  0  0  0  0  0  0  0
    7.2840   -0.6510   -0.9740 C   0  0  0  0  0  0  0  0  0  0  0  0
   -3.4940    0.2720    0.8400 C   0  0  3  0  0  0  0  0  0  0  0  0
   -2.9780    0.5670    2.2610 C   0  0  0  0  0  0  0  0  0  0  0  0
    8.2730   -0.8300   -3.2180 O   0  0  0  0  0  0  0  0  0  0  0  0
   -1.0480    1.8330   -3.9130 C   0  0  0  0  0  0  0  0  0  0  0  0
    9.5680   -0.7270   -2.6370 C   0  0  0  0  0  0  0  0  0  0  0  0
   -4.8440    0.9460    0.6020 C   0  0  0  0  0  0  0  0  0  0  0  0
   -2.3830    2.5140   -4.1310 C   0  0  0  0  0  0  0  0  0  0  0  0
    2.6340   -0.0140   -1.5600 H   0  0  0  0  0  0  0  0  0  0  0  0
   -2.7350    0.2700   -1.1800 H   0  0  0  0  0  0  0  0  0  0  0  0
   -2.5140    1.8090   -0.3140 H   0  0  0  0  0  0  0  0  0  0  0  0
   -1.2120    0.2190    3.4440 H   0  0  0  0  0  0  0  0  0  0  0  0
   -1.9110   -1.2480    2.7170 H   0  0  0  0  0  0  0  0  0  0  0  0
    6.1860   -0.5400    0.8740 H   0  0  0  0  0  0  0  0  0  0  0  0
    3.8280   -0.9680   -2.6900 H   0  0  0  0  0  0  0  0  0  0  0  0
    5.8900   -0.9970   -4.0450 H   0  0  0  0  0  0  0  0  0  0  0  0
    8.2500   -0.5690   -0.4980 H   0  0  0  0  0  0  0  0  0  0  0  0
   -3.6270   -0.8060    0.7490 H   0  0  0  0  0  0  0  0  0  0  0  0
   -2.7900    1.6370    2.3560 H   0  0  0  0  0  0  0  0  0  0  0  0
   -3.7360    0.2650    2.9840 H   0  0  0  0  0  0  0  0  0  0  0  0
   -0.9580    0.9820   -4.5880 H   0  0  0  0  0  0  0  0  0  0  0  0
   -0.2420    2.5400   -4.1100 H   0  0  0  0  0  0  0  0  0  0  0  0
   10.3230   -0.7790   -3.4210 H   0  0  0  0  0  0  0  0  0  0  0  0
    9.7170   -1.5470   -1.9340 H   0  0  0  0  0  0  0  0  0  0  0  0
    9.6550    0.2230   -2.1100 H   0  0  0  0  0  0  0  0  0  0  0  0
   -4.7310    2.0270    0.6890 H   0  0  0  0  0  0  0  0  0  0  0  0
   -5.5610    0.5950    1.3440 H   0  0  0  0  0  0  0  0  0  0  0  0
   -5.2030    0.6970   -0.3970 H   0  0  0  0  0  0  0  0  0  0  0  0
   -3.1880    1.8060   -3.9340 H   0  0  0  0  0  0  0  0  0  0  0  0
   -2.4490    2.8620   -5.1620 H   0  0  0  0  0  0  0  0  0  0  0  0
   -2.4720    3.3640   -3.4540 H   0  0  0  0  0  0  0  0  0  0  0  0
  1  2  2  0  0  0  0
  1  3  1  0  0  0  0
  1  8  1  0  0  0  0
  2  4  1  0  0  0  0
  2  6  1  0  0  0  0
  3  5  2  0  0  0  0
  3  9  1  0  0  0  0
  4  5  1  0  0  0  0
  5 11  1  0  0  0  0
  6  7  1  0  0  0  0
  6 27  1  0  0  0  0
  7 10  1  0  0  0  0
  7 12  2  0  0  0  0
  8 13  2  0  0  0  0
  8 16  1  0  0  0  0
  9 20  1  0  0  0  0
  9 28  1  0  0  0  0
  9 29  1  0  0  0  0
 10 14  1  0  0  0  0
 10 15  2  0  0  0  0
 11 21  1  0  0  0  0
 11 30  1  0  0  0  0
 11 31  1  0  0  0  0
 14 19  2  0  0  0  0
 14 32  1  0  0  0  0
 15 18  1  0  0  0  0
 15 33  1  0  0  0  0
 16 23  1  0  0  0  0
 17 18  2  0  0  0  0
 17 19  1  0  0  0  0
 17 22  1  0  0  0  0
 18 34  1  0  0  0  0
 19 35  1  0  0  0  0
 20 21  1  0  0  0  0
 20 25  1  0  0  0  0
 20 36  1  0  0  0  0
 21 37  1  0  0  0  0
 21 38  1  0  0  0  0
 22 24  1  0  0  0  0
 23 26  1  0  0  0  0
 23 39  1  0  0  0  0
 23 40  1  0  0  0  0
 24 41  1  0  0  0  0
 24 42  1  0  0  0  0
 24 43  1  0  0  0  0
 25 44  1  0  0  0  0
 25 45  1  0  0  0  0
 25 46  1  0  0  0  0
 26 47  1  0  0  0  0
 26 48  1  0  0  0  0
 26 49  1  0  0  0  0
M  END
>  <$CLUSTER>
766

>  <INDEX>
24051

$$$$
Chem T&I ALBK0006969
  MOE2020           3D

 48 52  0  0  1  0  0  0  0  0999 V2000
    0.5390    0.4710   -0.1470 N   0  0  0  0  0  0  0  0  0  0  0  0
    1.4940    0.1300    0.8000 C   0  0  0  0  0  0  0  0  0  0  0  0
    1.0520    1.3010   -1.1370 C   0  0  0  0  0  0  0  0  0  0  0  0
    2.8360    0.5560    0.2510 C   0  0  3  0  0  0  0  0  0  0  0  0
   -0.8270    0.0620   -0.0990 C   0  0  0  0  0  0  0  0  0  0  0  0
    2.4440    1.6950   -0.6890 C   0  0  3  0  0  0  0  0  0  0  0  0
    3.4980   -0.6430   -0.4380 C   0  0  0  0  0  0  0  0  0  0  0  0
   -1.2360   -1.2650    0.2450 C   0  0  0  0  0  0  0  0  0  0  0  0
    3.4210    1.9850   -1.8200 C   0  0  0  0  0  0  0  0  0  0  0  0
    4.5740   -0.2250   -1.4420 C   0  0  3  0  0  0  0  0  0  0  0  0
    1.3460   -0.4050    1.8900 O   0  0  0  0  0  0  0  0  0  0  0  0
    0.5190    1.6870   -2.1670 O   0  0  0  0  0  0  0  0  0  0  0  0
    3.9760    0.7280   -2.4820 C   0  0  0  0  0  0  0  0  0  0  0  0
    5.1810   -1.4510   -2.1220 C   0  0  0  0  0  0  0  0  0  0  0  0
   -2.6270   -1.5310    0.3760 C   0  0  0  0  0  0  0  0  0  0  0  0
   -1.8030    1.0380   -0.3750 C   0  0  0  0  0  0  0  0  0  0  0  0
   -0.3630   -2.3710    0.4080 C   0  0  0  0  0  0  0  0  0  0  0  0
   -3.1580    0.7510   -0.2570 C   0  0  0  0  0  0  0  0  0  0  0  0
   -3.5650   -0.5190    0.1320 C   0  0  0  0  0  0  0  0  0  0  0  0
    4.4270   -2.3380   -2.8940 C   0  0  0  0  0  0  0  0  0  0  0  0
    6.5590   -1.6980   -1.9650 C   0  0  0  0  0  0  0  0  0  0  0  0
   -3.0790   -2.8150    0.7280 C   0  0  0  0  0  0  0  0  0  0  0  0
   -0.8270   -3.6440    0.7500 C   0  0  0  0  0  0  0  0  0  0  0  0
    5.0240   -3.4470   -3.4970 C   0  0  0  0  0  0  0  0  0  0  0  0
    7.1550   -2.8070   -2.5690 C   0  0  0  0  0  0  0  0  0  0  0  0
   -2.1850   -3.8630    0.9220 C   0  0  0  0  0  0  0  0  0  0  0  0
    6.3870   -3.6820   -3.3350 C   0  0  0  0  0  0  0  0  0  0  0  0
    3.5760    0.8870    0.9790 H   0  0  0  0  0  0  0  0  0  0  0  0
    2.4690    2.6620   -0.1870 H   0  0  0  0  0  0  0  0  0  0  0  0
    2.7310   -1.2100   -0.9650 H   0  0  0  0  0  0  0  0  0  0  0  0
    3.9570   -1.2730    0.3240 H   0  0  0  0  0  0  0  0  0  0  0  0
    4.2550    2.5590   -1.4170 H   0  0  0  0  0  0  0  0  0  0  0  0
    2.9060    2.5750   -2.5780 H   0  0  0  0  0  0  0  0  0  0  0  0
    5.3700    0.2940   -0.9070 H   0  0  0  0  0  0  0  0  0  0  0  0
    4.7520    1.0130   -3.1920 H   0  0  0  0  0  0  0  0  0  0  0  0
    3.1700    0.2180   -3.0100 H   0  0  0  0  0  0  0  0  0  0  0  0
   -1.4940    2.0260   -0.6830 H   0  0  0  0  0  0  0  0  0  0  0  0
    0.6970   -2.2240    0.2630 H   0  0  0  0  0  0  0  0  0  0  0  0
   -3.8930    1.5140   -0.4670 H   0  0  0  0  0  0  0  0  0  0  0  0
   -4.6180   -0.7290    0.2480 H   0  0  0  0  0  0  0  0  0  0  0  0
    3.3690   -2.1640   -3.0260 H   0  0  0  0  0  0  0  0  0  0  0  0
    7.1600   -1.0240   -1.3720 H   0  0  0  0  0  0  0  0  0  0  0  0
   -4.1380   -2.9910    0.8500 H   0  0  0  0  0  0  0  0  0  0  0  0
   -0.1280   -4.4570    0.8800 H   0  0  0  0  0  0  0  0  0  0  0  0
    4.4270   -4.1240   -4.0900 H   0  0  0  0  0  0  0  0  0  0  0  0
    8.2120   -2.9870   -2.4420 H   0  0  0  0  0  0  0  0  0  0  0  0
   -2.5460   -4.8410    1.2050 H   0  0  0  0  0  0  0  0  0  0  0  0
    6.8480   -4.5400   -3.8020 H   0  0  0  0  0  0  0  0  0  0  0  0
  1  2  1  0  0  0  0
  1  3  1  0  0  0  0
  1  5  1  0  0  0  0
  2  4  1  0  0  0  0
  2 11  2  0  0  0  0
  3  6  1  0  0  0  0
  3 12  2  0  0  0  0
  4  6  1  0  0  0  0
  4  7  1  0  0  0  0
  4 28  1  0  0  0  0
  5  8  2  0  0  0  0
  5 16  1  0  0  0  0
  6  9  1  0  0  0  0
  6 29  1  0  0  0  0
  7 10  1  0  0  0  0
  7 30  1  0  0  0  0
  7 31  1  0  0  0  0
  8 15  1  0  0  0  0
  8 17  1  0  0  0  0
  9 13  1  0  0  0  0
  9 32  1  0  0  0  0
  9 33  1  0  0  0  0
 10 13  1  0  0  0  0
 10 14  1  0  0  0  0
 10 34  1  0  0  0  0
 13 35  1  0  0  0  0
 13 36  1  0  0  0  0
 14 20  2  0  0  0  0
 14 21  1  0  0  0  0
 15 19  2  0  0  0  0
 15 22  1  0  0  0  0
 16 18  2  0  0  0  0
 16 37  1  0  0  0  0
 17 23  2  0  0  0  0
 17 38  1  0  0  0  0
 18 19  1  0  0  0  0
 18 39  1  0  0  0  0
 19 40  1  0  0  0  0
 20 24  1  0  0  0  0
 20 41  1  0  0  0  0
 21 25  2  0  0  0  0
 21 42  1  0  0  0  0
 22 26  2  0  0  0  0
 22 43  1  0  0  0  0
 23 26  1  0  0  0  0
 23 44  1  0  0  0  0
 24 27  2  0  0  0  0
 24 45  1  0  0  0  0
 25 27  1  0  0  0  0
 25 46  1  0  0  0  0
 26 47  1  0  0  0  0
 27 48  1  0  0  0  0
M  END
>  <$CLUSTER>
767

>  <INDEX>
504166

$$$$
Chem T&I ALBK0007049
  MOE2020           3D

 54 58  0  0  1  0  0  0  0  0999 V2000
    0.2740   -0.0220   -0.2780 N   0  0  0  0  0  0  0  0  0  0  0  0
    0.7920    0.8330    0.6910 C   0  0  0  0  0  0  0  0  0  0  0  0
    0.9940    0.0580   -1.4670 C   0  0  0  0  0  0  0  0  0  0  0  0
    1.8090    1.7220    0.0130 C   0  0  3  0  0  0  0  0  0  0  0  0
    2.2420    0.8580   -1.1660 C   0  0  3  0  0  0  0  0  0  0  0  0
    1.1390    3.0440   -0.3740 C   0  0  0  0  0  0  0  0  0  0  0  0
   -0.8590   -0.8730   -0.0780 C   0  0  0  0  0  0  0  0  0  0  0  0
    2.8240    1.6130   -2.3540 C   0  0  0  0  0  0  0  0  0  0  0  0
    1.8960    3.7870   -1.4770 C   0  0  3  0  0  0  0  0  0  0  0  0
    0.5240    0.9270    1.8810 O   0  0  0  0  0  0  0  0  0  0  0  0
    0.7350   -0.4050   -2.5690 O   0  0  0  0  0  0  0  0  0  0  0  0
    2.0560    2.8830   -2.7030 C   0  0  0  0  0  0  0  0  0  0  0  0
   -7.6860   -2.0280   -1.7750 N   0  0  0  0  0  0  0  0  0  0  0  0
    1.1730    5.0800   -1.8510 C   0  0  0  0  0  0  0  0  0  0  0  0
   -1.7820   -0.6310    0.9530 C   0  0  0  0  0  0  0  0  0  0  0  0
   -1.0920   -1.9850   -0.9060 C   0  0  0  0  0  0  0  0  0  0  0  0
   -3.0990   -2.5570    0.3150 C   0  0  0  0  0  0  0  0  0  0  0  0
   -4.3020   -3.4450    0.5150 C   0  0  0  0  0  0  0  0  0  0  0  0
   -2.8910   -1.4630    1.1470 C   0  0  0  0  0  0  0  0  0  0  0  0
   -2.1990   -2.8180   -0.7110 C   0  0  0  0  0  0  0  0  0  0  0  0
   -5.5010   -2.9580   -0.2850 C   0  0  0  0  0  0  0  0  0  0  0  0
   -6.7990   -2.9100   -2.2860 C   0  0  0  0  0  0  0  0  0  0  0  0
   -7.4600   -1.6160   -0.5090 C   0  0  0  0  0  0  0  0  0  0  0  0
   -0.1270    5.0970   -2.3640 C   0  0  0  0  0  0  0  0  0  0  0  0
    1.8430    6.3060   -1.6720 C   0  0  0  0  0  0  0  0  0  0  0  0
   -5.7020   -3.3990   -1.5920 C   0  0  0  0  0  0  0  0  0  0  0  0
   -6.3940   -2.0430    0.2690 C   0  0  0  0  0  0  0  0  0  0  0  0
   -0.7500    6.3020   -2.6930 C   0  0  0  0  0  0  0  0  0  0  0  0
    1.2180    7.5110   -2.0010 C   0  0  0  0  0  0  0  0  0  0  0  0
   -0.0780    7.5090   -2.5120 C   0  0  0  0  0  0  0  0  0  0  0  0
    2.6670    2.0250    0.6130 H   0  0  0  0  0  0  0  0  0  0  0  0
    3.0990    0.2290   -0.9240 H   0  0  0  0  0  0  0  0  0  0  0  0
    1.0920    3.6830    0.5080 H   0  0  0  0  0  0  0  0  0  0  0  0
    0.1290    2.8340   -0.7250 H   0  0  0  0  0  0  0  0  0  0  0  0
    2.8120    0.9530   -3.2220 H   0  0  0  0  0  0  0  0  0  0  0  0
    3.8530    1.8860   -2.1190 H   0  0  0  0  0  0  0  0  0  0  0  0
    2.8860    4.0500   -1.1050 H   0  0  0  0  0  0  0  0  0  0  0  0
    1.0680    2.6110   -3.0750 H   0  0  0  0  0  0  0  0  0  0  0  0
    2.5990    3.4260   -3.4770 H   0  0  0  0  0  0  0  0  0  0  0  0
   -1.6330    0.2140    1.6090 H   0  0  0  0  0  0  0  0  0  0  0  0
   -0.4030   -2.2010   -1.7090 H   0  0  0  0  0  0  0  0  0  0  0  0
   -4.5630   -3.4530    1.5730 H   0  0  0  0  0  0  0  0  0  0  0  0
   -4.0510   -4.4560    0.1950 H   0  0  0  0  0  0  0  0  0  0  0  0
   -3.5870   -1.2540    1.9460 H   0  0  0  0  0  0  0  0  0  0  0  0
   -2.3550   -3.6670   -1.3600 H   0  0  0  0  0  0  0  0  0  0  0  0
   -6.9540   -3.2560   -3.2970 H   0  0  0  0  0  0  0  0  0  0  0  0
   -8.1530   -0.9100   -0.0750 H   0  0  0  0  0  0  0  0  0  0  0  0
   -0.6560    4.1660   -2.5080 H   0  0  0  0  0  0  0  0  0  0  0  0
    2.8480    6.3140   -1.2770 H   0  0  0  0  0  0  0  0  0  0  0  0
   -5.0230   -4.1020   -2.0510 H   0  0  0  0  0  0  0  0  0  0  0  0
   -6.2600   -1.6770    1.2760 H   0  0  0  0  0  0  0  0  0  0  0  0
   -1.7550    6.2990   -3.0890 H   0  0  0  0  0  0  0  0  0  0  0  0
    1.7400    8.4460   -1.8590 H   0  0  0  0  0  0  0  0  0  0  0  0
   -0.5610    8.4410   -2.7670 H   0  0  0  0  0  0  0  0  0  0  0  0
  1  2  1  0  0  0  0
  1  3  1  0  0  0  0
  1  7  1  0  0  0  0
  2  4  1  0  0  0  0
  2 10  2  0  0  0  0
  3  5  1  0  0  0  0
  3 11  2  0  0  0  0
  4  5  1  0  0  0  0
  4  6  1  0  0  0  0
  4 31  1  0  0  0  0
  5  8  1  0  0  0  0
  5 32  1  0  0  0  0
  6  9  1  0  0  0  0
  6 33  1  0  0  0  0
  6 34  1  0  0  0  0
  7 15  2  0  0  0  0
  7 16  1  0  0  0  0
  8 12  1  0  0  0  0
  8 35  1  0  0  0  0
  8 36  1  0  0  0  0
  9 12  1  0  0  0  0
  9 14  1  0  0  0  0
  9 37  1  0  0  0  0
 12 38  1  0  0  0  0
 12 39  1  0  0  0  0
 13 22  2  0  0  0  0
 13 23  1  0  0  0  0
 14 24  2  0  0  0  0
 14 25  1  0  0  0  0
 15 19  1  0  0  0  0
 15 40  1  0  0  0  0
 16 20  2  0  0  0  0
 16 41  1  0  0  0  0
 17 18  1  0  0  0  0
 17 19  2  0  0  0  0
 17 20  1  0  0  0  0
 18 21  1  0  0  0  0
 18 42  1  0  0  0  0
 18 43  1  0  0  0  0
 19 44  1  0  0  0  0
 20 45  1  0  0  0  0
 21 26  2  0  0  0  0
 21 27  1  0  0  0  0
 22 26  1  0  0  0  0
 22 46  1  0  0  0  0
 23 27  2  0  0  0  0
 23 47  1  0  0  0  0
 24 28  1  0  0  0  0
 24 48  1  0  0  0  0
 25 29  2  0  0  0  0
 25 49  1  0  0  0  0
 26 50  1  0  0  0  0
 27 51  1  0  0  0  0
 28 30  2  0  0  0  0
 28 52  1  0  0  0  0
 29 30  1  0  0  0  0
 29 53  1  0  0  0  0
 30 54  1  0  0  0  0
M  END
>  <$CLUSTER>
768

>  <INDEX>
504181

$$$$
Specs AM-807/14147601
  MOE2020           3D

 49 52  0  0  1  0  0  0  0  0999 V2000
   -0.4870    1.4580    0.4680 C   0  0  0  0  0  0  0  0  0  0  0  0
    0.8420   -0.5220   -0.0350 C   0  0  0  0  0  0  0  0  0  0  0  0
   -0.4160    0.1130    0.0530 C   0  0  0  0  0  0  0  0  0  0  0  0
    1.9870    0.2180    0.2790 C   0  0  0  0  0  0  0  0  0  0  0  0
    1.9240    1.5150    0.6600 N   0  0  0  0  0  0  0  0  0  0  0  0
    0.7140    2.1160    0.7410 C   0  0  0  0  0  0  0  0  0  0  0  0
   -1.6440   -0.6240   -0.2750 C   0  0  0  0  0  0  0  0  0  0  0  0
    0.9330   -1.9000   -0.4380 C   0  0  0  0  0  0  0  0  0  0  0  0
    0.9980   -3.0120   -0.7640 N   0  0  0  0  0  0  0  0  0  0  0  0
    3.6280   -0.5210    0.1910 S   0  0  0  0  0  0  0  0  0  0  0  0
   -1.7980    2.2000    0.5610 C   0  0  0  0  0  0  0  0  0  0  0  0
   -1.7190    3.5320    1.2800 N   0  3  3  0  0  0  0  0  0  0  0  0
   -2.2500   -0.5890   -1.8790 S   0  0  0  0  0  0  0  0  0  0  0  0
    0.7310    3.5460    1.2110 C   0  0  0  0  0  0  0  0  0  0  0  0
   -2.4340   -1.3980    0.5520 C   0  0  0  0  0  0  0  0  0  0  0  0
   -3.5680   -1.5990   -1.4670 C   0  0  0  0  0  0  0  0  0  0  0  0
    4.6830    0.8750    0.6710 C   0  0  0  0  0  0  0  0  0  0  0  0
    4.5280    1.2210    2.1440 C   0  0  0  0  0  0  0  0  0  0  0  0
   -3.5470   -1.9600   -0.1390 C   0  0  0  0  0  0  0  0  0  0  0  0
   -0.5200    4.3210    0.8260 C   0  0  0  0  0  0  0  0  0  0  0  0
    5.3430    0.6530    3.1420 C   0  0  0  0  0  0  0  0  0  0  0  0
   -2.9970    4.3130    1.1610 C   0  0  0  0  0  0  0  0  0  0  0  0
    3.5180    2.1260    2.5100 C   0  0  0  0  0  0  0  0  0  0  0  0
    6.4440   -0.3190    2.8210 C   0  0  0  0  0  0  0  0  0  0  0  0
    5.1330    1.0180    4.4830 C   0  0  0  0  0  0  0  0  0  0  0  0
    3.3200    2.4740    3.8450 C   0  0  0  0  0  0  0  0  0  0  0  0
    4.1290    1.9210    4.8320 C   0  0  0  0  0  0  0  0  0  0  0  0
   -2.5090    1.5680    1.0930 H   0  0  0  0  0  0  0  0  0  0  0  0
   -2.1590    2.3810   -0.4510 H   0  0  0  0  0  0  0  0  0  0  0  0
   -1.5970    3.3420    2.2640 H   0  0  0  0  0  0  0  0  0  0  0  0
    1.5950    4.0440    0.7720 H   0  0  0  0  0  0  0  0  0  0  0  0
    0.8210    3.5520    2.2970 H   0  0  0  0  0  0  0  0  0  0  0  0
   -2.2320   -1.5590    1.6010 H   0  0  0  0  0  0  0  0  0  0  0  0
   -4.3270   -1.9160   -2.1670 H   0  0  0  0  0  0  0  0  0  0  0  0
    4.4100    1.7450    0.0740 H   0  0  0  0  0  0  0  0  0  0  0  0
    5.7230    0.6140    0.4780 H   0  0  0  0  0  0  0  0  0  0  0  0
   -4.2870   -2.5950    0.3250 H   0  0  0  0  0  0  0  0  0  0  0  0
   -0.5140    5.2960    1.3120 H   0  0  0  0  0  0  0  0  0  0  0  0
   -0.5540    4.4540   -0.2550 H   0  0  0  0  0  0  0  0  0  0  0  0
   -3.1830    4.5490    0.1130 H   0  0  0  0  0  0  0  0  0  0  0  0
   -2.9120    5.2380    1.7320 H   0  0  0  0  0  0  0  0  0  0  0  0
   -3.8230    3.7190    1.5520 H   0  0  0  0  0  0  0  0  0  0  0  0
    2.8870    2.5580    1.7470 H   0  0  0  0  0  0  0  0  0  0  0  0
    6.4720   -0.4940    1.7450 H   0  0  0  0  0  0  0  0  0  0  0  0
    6.2590   -1.2610    3.3370 H   0  0  0  0  0  0  0  0  0  0  0  0
    7.3990    0.0930    3.1470 H   0  0  0  0  0  0  0  0  0  0  0  0
    5.7580    0.5930    5.2540 H   0  0  0  0  0  0  0  0  0  0  0  0
    2.5400    3.1720    4.1120 H   0  0  0  0  0  0  0  0  0  0  0  0
    3.9800    2.1900    5.8670 H   0  0  0  0  0  0  0  0  0  0  0  0
  1  3  2  0  0  0  0
  1  6  1  0  0  0  0
  1 11  1  0  0  0  0
  2  3  1  0  0  0  0
  2  4  2  0  0  0  0
  2  8  1  0  0  0  0
  3  7  1  0  0  0  0
  4  5  1  0  0  0  0
  4 10  1  0  0  0  0
  5  6  2  0  0  0  0
  6 14  1  0  0  0  0
  7 13  1  0  0  0  0
  7 15  2  0  0  0  0
  8  9  3  0  0  0  0
 10 17  1  0  0  0  0
 11 12  1  0  0  0  0
 11 28  1  0  0  0  0
 11 29  1  0  0  0  0
 12 20  1  0  0  0  0
 12 22  1  0  0  0  0
 12 30  1  0  0  0  0
 13 16  1  0  0  0  0
 14 20  1  0  0  0  0
 14 31  1  0  0  0  0
 14 32  1  0  0  0  0
 15 19  1  0  0  0  0
 15 33  1  0  0  0  0
 16 19  2  0  0  0  0
 16 34  1  0  0  0  0
 17 18  1  0  0  0  0
 17 35  1  0  0  0  0
 17 36  1  0  0  0  0
 18 21  2  0  0  0  0
 18 23  1  0  0  0  0
 19 37  1  0  0  0  0
 20 38  1  0  0  0  0
 20 39  1  0  0  0  0
 21 24  1  0  0  0  0
 21 25  1  0  0  0  0
 22 40  1  0  0  0  0
 22 41  1  0  0  0  0
 22 42  1  0  0  0  0
 23 26  2  0  0  0  0
 23 43  1  0  0  0  0
 24 44  1  0  0  0  0
 24 45  1  0  0  0  0
 24 46  1  0  0  0  0
 25 27  2  0  0  0  0
 25 47  1  0  0  0  0
 26 27  1  0  0  0  0
 26 48  1  0  0  0  0
 27 49  1  0  0  0  0
M  CHG  1  12   1
M  END
>  <$CLUSTER>
769

>  <INDEX>
504844

$$$$
Specs AM-807/42947073
  MOE2020           3D

 19 20  0  0  0  0  0  0  0  0999 V2000
   -1.6550   -0.5750    0.5420 C   0  0  0  0  0  0  0  0  0  0  0  0
   -0.9670   -1.6160    1.1250 C   0  0  0  0  0  0  0  0  0  0  0  0
   -0.8850    0.3550   -0.1280 N   0  0  0  0  0  0  0  0  0  0  0  0
   -3.0200   -0.5270    0.6590 N   0  0  0  0  0  0  0  0  0  0  0  0
    0.3820    0.0110   -0.0480 C   0  0  0  0  0  0  0  0  0  0  0  0
   -1.5450   -2.6590    1.8450 C   0  0  0  0  0  0  0  0  0  0  0  0
    0.7100   -1.4320    0.8270 S   0  0  0  0  0  0  0  0  0  0  0  0
   -2.8810   -2.6220    1.9660 C   0  0  0  0  0  0  0  0  0  0  0  0
   -3.7030   -1.5210    1.3600 C   0  0  0  0  0  0  0  0  0  0  0  0
   -4.9230   -1.5290    1.4980 O   0  0  0  0  0  0  0  0  0  0  0  0
    1.6700    0.9520   -0.7810 S   0  0  0  0  0  0  0  0  0  0  0  0
   -0.7700   -3.6220    2.3690 O   0  0  0  0  0  0  0  0  0  0  0  0
    0.7440    2.3060   -1.5360 C   0  0  0  0  0  0  0  0  0  0  0  0
   -3.5340    0.2320    0.2350 H   0  0  0  0  0  0  0  0  0  0  0  0
   -3.3800   -3.4070    2.5150 H   0  0  0  0  0  0  0  0  0  0  0  0
   -1.2420   -4.3050    2.8510 H   0  0  0  0  0  0  0  0  0  0  0  0
    1.4350    2.9830   -2.0380 H   0  0  0  0  0  0  0  0  0  0  0  0
    0.2000    2.8490   -0.7630 H   0  0  0  0  0  0  0  0  0  0  0  0
    0.0380    1.9030   -2.2620 H   0  0  0  0  0  0  0  0  0  0  0  0
  1  2  2  0  0  0  0
  1  3  1  0  0  0  0
  1  4  1  0  0  0  0
  2  6  1  0  0  0  0
  2  7  1  0  0  0  0
  3  5  2  0  0  0  0
  4  9  1  0  0  0  0
  4 14  1  0  0  0  0
  5  7  1  0  0  0  0
  5 11  1  0  0  0  0
  6  8  2  0  0  0  0
  6 12  1  0  0  0  0
  8  9  1  0  0  0  0
  8 15  1  0  0  0  0
  9 10  2  0  0  0  0
 11 13  1  0  0  0  0
 12 16  1  0  0  0  0
 13 17  1  0  0  0  0
 13 18  1  0  0  0  0
 13 19  1  0  0  0  0
M  END
>  <$CLUSTER>
770

>  <INDEX>
505079

$$$$
Enamine T0508-4534
  MOE2020           3D

 25 26  0  0  0  0  0  0  0  0999 V2000
    1.0460   -1.5460   -0.1220 N   0  0  0  0  0  0  0  0  0  0  0  0
    1.0400   -2.5140    0.7990 N   0  0  0  0  0  0  0  0  0  0  0  0
    0.2560   -0.4360    0.0250 C   0  0  0  0  0  0  0  0  0  0  0  0
   -0.4390    1.6740   -0.9160 N   0  0  0  0  0  0  0  0  0  0  0  0
    0.2380   -2.3820    1.8860 C   0  0  0  0  0  0  0  0  0  0  0  0
    0.3100    0.5440   -0.9820 N   0  0  0  0  0  0  0  0  0  0  0  0
   -0.2730    2.4760   -1.9230 C   0  0  0  0  0  0  0  0  0  0  0  0
   -0.5700   -0.2930    1.1370 C   0  0  0  0  0  0  0  0  0  0  0  0
    0.3140   -3.6650    2.9810 Cl  0  0  0  0  0  0  0  0  0  0  0  0
   -1.0270    3.7680   -2.0020 C   0  0  0  0  0  0  0  0  0  0  0  0
   -2.3750    6.1820   -2.2420 C   0  0  0  0  0  0  0  0  0  0  0  0
   -0.5820   -1.2920    2.0970 C   0  0  0  0  0  0  0  0  0  0  0  0
   -3.2870    7.7870   -2.3790 Br  0  0  0  0  0  0  0  0  0  0  0  0
   -2.5970    5.3630   -1.1340 C   0  0  0  0  0  0  0  0  0  0  0  0
   -1.4730    5.7900   -3.2330 C   0  0  0  0  0  0  0  0  0  0  0  0
   -0.7920    4.5770   -3.1190 C   0  0  0  0  0  0  0  0  0  0  0  0
   -1.9170    4.1480   -1.0160 C   0  0  0  0  0  0  0  0  0  0  0  0
    0.9210    0.4040   -1.7740 H   0  0  0  0  0  0  0  0  0  0  0  0
    0.4150    2.2090   -2.7110 H   0  0  0  0  0  0  0  0  0  0  0  0
   -1.1920    0.5830    1.2490 H   0  0  0  0  0  0  0  0  0  0  0  0
   -1.2070   -1.2210    2.9750 H   0  0  0  0  0  0  0  0  0  0  0  0
   -3.2940    5.6680   -0.3680 H   0  0  0  0  0  0  0  0  0  0  0  0
   -1.3020    6.4260   -4.0890 H   0  0  0  0  0  0  0  0  0  0  0  0
   -0.0940    4.2670   -3.8820 H   0  0  0  0  0  0  0  0  0  0  0  0
   -2.0860    3.5110   -0.1610 H   0  0  0  0  0  0  0  0  0  0  0  0
  1  2  2  0  0  0  0
  1  3  1  0  0  0  0
  2  5  1  0  0  0  0
  3  6  1  0  0  0  0
  3  8  2  0  0  0  0
  4  6  1  0  0  0  0
  4  7  2  0  0  0  0
  5  9  1  0  0  0  0
  5 12  2  0  0  0  0
  6 18  1  0  0  0  0
  7 10  1  0  0  0  0
  7 19  1  0  0  0  0
  8 12  1  0  0  0  0
  8 20  1  0  0  0  0
 10 16  2  0  0  0  0
 10 17  1  0  0  0  0
 11 13  1  0  0  0  0
 11 14  1  0  0  0  0
 11 15  2  0  0  0  0
 12 21  1  0  0  0  0
 14 17  2  0  0  0  0
 14 22  1  0  0  0  0
 15 16  1  0  0  0  0
 15 23  1  0  0  0  0
 16 24  1  0  0  0  0
 17 25  1  0  0  0  0
M  END
>  <$CLUSTER>
771

>  <INDEX>
417583

$$$$
Chem T&I AMCLME-02094
  MOE2020           3D

 46 48  0  0  0  0  0  0  0  0999 V2000
    1.8350   -1.2590   -0.5700 C   0  0  0  0  0  0  0  0  0  0  0  0
    4.0060   -2.1480    0.0150 N   0  0  0  0  0  0  0  0  0  0  0  0
    5.9440   -4.2700    0.5000 N   0  0  0  0  0  0  0  0  0  0  0  0
    1.3410    0.0070   -0.2810 N   0  0  0  0  0  0  0  0  0  0  0  0
    3.3120   -1.2110   -0.8740 C   0  0  0  0  0  0  0  0  0  0  0  0
    1.2230   -2.3210   -0.5960 O   0  0  0  0  0  0  0  0  0  0  0  0
    6.6870   -5.1740    1.3770 C   0  0  0  0  0  0  0  0  0  0  0  0
    6.6040   -6.6380    0.9730 C   0  0  0  0  0  0  0  0  0  0  0  0
    0.0110    0.3570    0.0500 C   0  0  0  0  0  0  0  0  0  0  0  0
    5.4880   -1.9240   -0.1280 C   0  0  0  0  0  0  0  0  0  0  0  0
    6.2710   -2.8690    0.7980 C   0  0  0  0  0  0  0  0  0  0  0  0
    4.4980   -4.4940    0.6220 C   0  0  0  0  0  0  0  0  0  0  0  0
    3.7410   -3.5550   -0.2820 C   0  0  0  0  0  0  0  0  0  0  0  0
    5.5230   -7.4100    1.3930 C   0  0  0  0  0  0  0  0  0  0  0  0
   -2.5730    1.2340    0.7210 C   0  0  0  0  0  0  0  0  0  0  0  0
    5.4200   -8.7410    0.9840 C   0  0  0  0  0  0  0  0  0  0  0  0
   -3.7690    1.7220    1.0440 F   0  0  0  0  0  0  0  0  0  0  0  0
    4.1200   -9.7040    1.5160 Cl  0  0  0  0  0  0  0  0  0  0  0  0
   -1.0460   -0.5550    0.1390 C   0  0  0  0  0  0  0  0  0  0  0  0
   -0.2440    1.7140    0.3010 C   0  0  0  0  0  0  0  0  0  0  0  0
   -2.3310   -0.1150    0.4740 C   0  0  0  0  0  0  0  0  0  0  0  0
   -1.5280    2.1490    0.6350 C   0  0  0  0  0  0  0  0  0  0  0  0
    7.4480   -8.5030   -0.3030 C   0  0  0  0  0  0  0  0  0  0  0  0
    7.5530   -7.1720    0.1050 C   0  0  0  0  0  0  0  0  0  0  0  0
    6.3830   -9.2870    0.1370 C   0  0  0  0  0  0  0  0  0  0  0  0
    2.0080    0.7650   -0.3110 H   0  0  0  0  0  0  0  0  0  0  0  0
    3.6880   -0.2010   -0.7080 H   0  0  0  0  0  0  0  0  0  0  0  0
    3.4820   -1.4960   -1.9120 H   0  0  0  0  0  0  0  0  0  0  0  0
    6.2900   -5.0750    2.3870 H   0  0  0  0  0  0  0  0  0  0  0  0
    7.7350   -4.8750    1.3680 H   0  0  0  0  0  0  0  0  0  0  0  0
    5.7210   -0.8920    0.1340 H   0  0  0  0  0  0  0  0  0  0  0  0
    5.7800   -2.1120   -1.1610 H   0  0  0  0  0  0  0  0  0  0  0  0
    7.3390   -2.7110    0.6510 H   0  0  0  0  0  0  0  0  0  0  0  0
    6.0110   -2.6530    1.8340 H   0  0  0  0  0  0  0  0  0  0  0  0
    4.1940   -4.3210    1.6540 H   0  0  0  0  0  0  0  0  0  0  0  0
    4.2690   -5.5230    0.3430 H   0  0  0  0  0  0  0  0  0  0  0  0
    4.0320   -3.7540   -1.3130 H   0  0  0  0  0  0  0  0  0  0  0  0
    2.6740   -3.7410   -0.1630 H   0  0  0  0  0  0  0  0  0  0  0  0
    4.7670   -6.9800    2.0330 H   0  0  0  0  0  0  0  0  0  0  0  0
   -0.8690   -1.6030   -0.0520 H   0  0  0  0  0  0  0  0  0  0  0  0
    0.5620    2.4300    0.2350 H   0  0  0  0  0  0  0  0  0  0  0  0
   -3.1410   -0.8260    0.5420 H   0  0  0  0  0  0  0  0  0  0  0  0
   -1.7100    3.1960    0.8270 H   0  0  0  0  0  0  0  0  0  0  0  0
    8.1930   -8.9260   -0.9610 H   0  0  0  0  0  0  0  0  0  0  0  0
    8.3670   -6.5590   -0.2510 H   0  0  0  0  0  0  0  0  0  0  0  0
    6.3040  -10.3170   -0.1780 H   0  0  0  0  0  0  0  0  0  0  0  0
  1  4  1  0  0  0  0
  1  5  1  0  0  0  0
  1  6  2  0  0  0  0
  2  5  1  0  0  0  0
  2 10  1  0  0  0  0
  2 13  1  0  0  0  0
  3  7  1  0  0  0  0
  3 11  1  0  0  0  0
  3 12  1  0  0  0  0
  4  9  1  0  0  0  0
  4 26  1  0  0  0  0
  5 27  1  0  0  0  0
  5 28  1  0  0  0  0
  7  8  1  0  0  0  0
  7 29  1  0  0  0  0
  7 30  1  0  0  0  0
  8 14  2  0  0  0  0
  8 24  1  0  0  0  0
  9 19  2  0  0  0  0
  9 20  1  0  0  0  0
 10 11  1  0  0  0  0
 10 31  1  0  0  0  0
 10 32  1  0  0  0  0
 11 33  1  0  0  0  0
 11 34  1  0  0  0  0
 12 13  1  0  0  0  0
 12 35  1  0  0  0  0
 12 36  1  0  0  0  0
 13 37  1  0  0  0  0
 13 38  1  0  0  0  0
 14 16  1  0  0  0  0
 14 39  1  0  0  0  0
 15 17  1  0  0  0  0
 15 21  2  0  0  0  0
 15 22  1  0  0  0  0
 16 18  1  0  0  0  0
 16 25  2  0  0  0  0
 19 21  1  0  0  0  0
 19 40  1  0  0  0  0
 20 22  2  0  0  0  0
 20 41  1  0  0  0  0
 21 42  1  0  0  0  0
 22 43  1  0  0  0  0
 23 24  2  0  0  0  0
 23 25  1  0  0  0  0
 23 44  1  0  0  0  0
 24 45  1  0  0  0  0
 25 46  1  0  0  0  0
M  END
>  <$CLUSTER>
772

>  <INDEX>
506640

$$$$
Chem T&I VAD 0002132
  MOE2020           3D

 41 42  0  0  0  0  0  0  0  0999 V2000
    1.9910    1.9900    0.4280 C   0  0  0  0  0  0  0  0  0  0  0  0
    0.3570    0.3250   -0.1540 C   0  0  0  0  0  0  0  0  0  0  0  0
    0.3410    0.4970    1.1470 N   0  0  0  0  0  0  0  0  0  0  0  0
    1.4680    1.2740   -1.0400 S   0  0  0  0  0  0  0  0  0  0  0  0
    1.2800    1.4530    1.4810 C   0  0  0  0  0  0  0  0  0  0  0  0
    3.0400    3.0100    0.4590 C   0  0  0  0  0  0  0  0  0  0  0  0
   -0.4050   -0.5220   -0.9260 N   0  0  0  0  0  0  0  0  0  0  0  0
   -1.3530   -1.3590   -0.3610 C   0  0  0  0  0  0  0  0  0  0  0  0
   -2.0510   -2.1910   -1.4060 C   0  0  0  0  0  0  0  0  0  0  0  0
   -1.5050   -2.5550   -2.6100 C   0  0  0  0  0  0  0  0  0  0  0  0
    3.5850    3.3630   -0.7600 N   0  0  0  0  0  0  0  0  0  0  0  0
   -2.2220   -3.3530   -3.5060 C   0  0  0  0  0  0  0  0  0  0  0  0
    3.4350    3.5410    1.4980 O   0  0  0  0  0  0  0  0  0  0  0  0
   -1.6290   -1.4670    0.8310 O   0  0  0  0  0  0  0  0  0  0  0  0
   -3.4990   -3.8040   -3.1780 C   0  0  0  0  0  0  0  0  0  0  0  0
   -3.3500   -2.6680   -1.0500 C   0  0  0  0  0  0  0  0  0  0  0  0
   -4.0620   -3.4630   -1.9490 C   0  0  0  0  0  0  0  0  0  0  0  0
    1.4170    1.7930    2.9310 C   0  0  0  0  0  0  0  0  0  0  0  0
   -1.6210   -3.7250   -4.8230 C   0  0  0  0  0  0  0  0  0  0  0  0
    4.6490    4.3770   -0.8660 C   0  0  0  0  0  0  0  0  0  0  0  0
    3.1920    2.7950   -2.0720 C   0  0  0  0  0  0  0  0  0  0  0  0
   -4.2580   -4.6510   -4.1450 C   0  0  0  0  0  0  0  0  0  0  0  0
   -0.2700   -0.5340   -1.9270 H   0  0  0  0  0  0  0  0  0  0  0  0
   -0.5110   -2.2220   -2.8690 H   0  0  0  0  0  0  0  0  0  0  0  0
   -3.7780   -2.4150   -0.0910 H   0  0  0  0  0  0  0  0  0  0  0  0
   -5.0500   -3.8150   -1.6920 H   0  0  0  0  0  0  0  0  0  0  0  0
    2.1870    2.5550    3.0540 H   0  0  0  0  0  0  0  0  0  0  0  0
    1.6980    0.9000    3.4890 H   0  0  0  0  0  0  0  0  0  0  0  0
    0.4670    2.1720    3.3070 H   0  0  0  0  0  0  0  0  0  0  0  0
   -0.6260   -3.2870   -4.9050 H   0  0  0  0  0  0  0  0  0  0  0  0
   -2.2510   -3.3490   -5.6290 H   0  0  0  0  0  0  0  0  0  0  0  0
   -1.5470   -4.8100   -4.8950 H   0  0  0  0  0  0  0  0  0  0  0  0
    4.8920    4.7540    0.1270 H   0  0  0  0  0  0  0  0  0  0  0  0
    4.3060    5.2000   -1.4930 H   0  0  0  0  0  0  0  0  0  0  0  0
    5.5370    3.9270   -1.3110 H   0  0  0  0  0  0  0  0  0  0  0  0
    2.4050    2.0550   -1.9260 H   0  0  0  0  0  0  0  0  0  0  0  0
    4.0560    2.3200   -2.5360 H   0  0  0  0  0  0  0  0  0  0  0  0
    2.8250    3.5930   -2.7180 H   0  0  0  0  0  0  0  0  0  0  0  0
   -3.6570   -4.8080   -5.0410 H   0  0  0  0  0  0  0  0  0  0  0  0
   -5.1880   -4.1500   -4.4150 H   0  0  0  0  0  0  0  0  0  0  0  0
   -4.4830   -5.6140   -3.6860 H   0  0  0  0  0  0  0  0  0  0  0  0
  1  4  1  0  0  0  0
  1  5  2  0  0  0  0
  1  6  1  0  0  0  0
  2  3  2  0  0  0  0
  2  4  1  0  0  0  0
  2  7  1  0  0  0  0
  3  5  1  0  0  0  0
  5 18  1  0  0  0  0
  6 11  1  0  0  0  0
  6 13  2  0  0  0  0
  7  8  1  0  0  0  0
  7 23  1  0  0  0  0
  8  9  1  0  0  0  0
  8 14  2  0  0  0  0
  9 10  1  0  0  0  0
  9 16  2  0  0  0  0
 10 12  2  0  0  0  0
 10 24  1  0  0  0  0
 11 20  1  0  0  0  0
 11 21  1  0  0  0  0
 12 15  1  0  0  0  0
 12 19  1  0  0  0  0
 15 17  2  0  0  0  0
 15 22  1  0  0  0  0
 16 17  1  0  0  0  0
 16 25  1  0  0  0  0
 17 26  1  0  0  0  0
 18 27  1  0  0  0  0
 18 28  1  0  0  0  0
 18 29  1  0  0  0  0
 19 30  1  0  0  0  0
 19 31  1  0  0  0  0
 19 32  1  0  0  0  0
 20 33  1  0  0  0  0
 20 34  1  0  0  0  0
 20 35  1  0  0  0  0
 21 36  1  0  0  0  0
 21 37  1  0  0  0  0
 21 38  1  0  0  0  0
 22 39  1  0  0  0  0
 22 40  1  0  0  0  0
 22 41  1  0  0  0  0
M  END
>  <$CLUSTER>
773

>  <INDEX>
650435

$$$$
Chem T&I AMCLME-00502
  MOE2020           3D

 50 51  0  0  1  0  0  0  0  0999 V2000
    0.1140    0.4120    0.1680 C   0  0  0  0  0  0  0  0  0  0  0  0
   -0.7940   -0.5990   -0.1390 C   0  0  0  0  0  0  0  0  0  0  0  0
   -0.6300    1.7540    0.8990 S   0  0  0  0  0  0  0  0  0  0  0  0
   -2.1420   -0.2190    0.2580 C   0  0  0  0  0  0  0  0  0  0  0  0
   -2.1660    1.0370    0.8300 C   0  0  0  0  0  0  0  0  0  0  0  0
    1.4860    0.4090   -0.0620 N   0  0  0  0  0  0  0  0  0  0  0  0
    5.3880    4.4950   -0.1550 C   0  0  0  0  0  0  0  0  0  0  0  0
    5.7820    6.4010    1.0210 N   0  0  0  0  0  0  0  0  0  0  0  0
   -0.4590   -1.8800   -0.7750 C   0  0  0  0  0  0  0  0  0  0  0  0
    6.8820    5.9830    0.3760 N   0  0  0  0  0  0  0  0  0  0  0  0
    2.3960    1.4150    0.2420 C   0  0  0  0  0  0  0  0  0  0  0  0
    6.6980    4.8370   -0.3400 C   0  0  0  0  0  0  0  0  0  0  0  0
    4.8700    5.4820    0.6950 C   0  0  0  0  0  0  0  0  0  0  0  0
    4.6660    3.3050   -0.7190 C   0  0  0  0  0  0  0  0  0  0  0  0
    4.7990    2.0660    0.1370 N   0  3  3  0  0  0  0  0  0  0  0  0
   -1.2780   -2.7540   -1.0330 O   0  0  0  0  0  0  0  0  0  0  0  0
    2.1900    2.5030    0.7680 O   0  0  0  0  0  0  0  0  0  0  0  0
    3.7920    1.0160   -0.1710 C   0  0  0  0  0  0  0  0  0  0  0  0
    0.8590   -2.0400   -1.0680 O   0  0  0  0  0  0  0  0  0  0  0  0
   -3.3710   -1.0530    0.0840 C   0  0  0  0  0  0  0  0  0  0  0  0
   -3.3410    1.7010    1.3260 C   0  0  0  0  0  0  0  0  0  0  0  0
    8.1170    6.7390    0.4920 C   0  0  0  0  0  0  0  0  0  0  0  0
    6.2090    1.5380    0.0890 C   0  0  0  0  0  0  0  0  0  0  0  0
    1.2950   -3.2160   -1.6730 C   0  0  0  0  0  0  0  0  0  0  0  0
    8.8940    6.3850    1.7470 C   0  0  0  0  0  0  0  0  0  0  0  0
    1.8640   -0.4190   -0.5000 H   0  0  0  0  0  0  0  0  0  0  0  0
    7.4340    4.3100   -0.9300 H   0  0  0  0  0  0  0  0  0  0  0  0
    3.8490    5.4970    1.0460 H   0  0  0  0  0  0  0  0  0  0  0  0
    5.0730    3.0890   -1.7070 H   0  0  0  0  0  0  0  0  0  0  0  0
    3.6080    3.5520   -0.8080 H   0  0  0  0  0  0  0  0  0  0  0  0
    4.5980    2.3450    1.0860 H   0  0  0  0  0  0  0  0  0  0  0  0
    3.7990    0.8290   -1.2450 H   0  0  0  0  0  0  0  0  0  0  0  0
    4.0660    0.1030    0.3580 H   0  0  0  0  0  0  0  0  0  0  0  0
   -3.1040   -1.9990   -0.3880 H   0  0  0  0  0  0  0  0  0  0  0  0
   -4.0850   -0.5210   -0.5450 H   0  0  0  0  0  0  0  0  0  0  0  0
   -3.8200   -1.2470    1.0580 H   0  0  0  0  0  0  0  0  0  0  0  0
   -3.0660    2.6780    1.7220 H   0  0  0  0  0  0  0  0  0  0  0  0
   -3.7900    1.1010    2.1180 H   0  0  0  0  0  0  0  0  0  0  0  0
   -4.0570    1.8270    0.5140 H   0  0  0  0  0  0  0  0  0  0  0  0
    7.8760    7.8020    0.5170 H   0  0  0  0  0  0  0  0  0  0  0  0
    8.7400    6.5280   -0.3770 H   0  0  0  0  0  0  0  0  0  0  0  0
    6.4470    1.2300   -0.9290 H   0  0  0  0  0  0  0  0  0  0  0  0
    6.2990    0.6820    0.7580 H   0  0  0  0  0  0  0  0  0  0  0  0
    6.9010    2.3200    0.4030 H   0  0  0  0  0  0  0  0  0  0  0  0
    2.3720   -3.1660   -1.8310 H   0  0  0  0  0  0  0  0  0  0  0  0
    0.7930   -3.3390   -2.6330 H   0  0  0  0  0  0  0  0  0  0  0  0
    1.0610   -4.0640   -1.0290 H   0  0  0  0  0  0  0  0  0  0  0  0
    8.2810    6.5920    2.6240 H   0  0  0  0  0  0  0  0  0  0  0  0
    9.8050    6.9820    1.7910 H   0  0  0  0  0  0  0  0  0  0  0  0
    9.1540    5.3270    1.7270 H   0  0  0  0  0  0  0  0  0  0  0  0
  1  2  2  0  0  0  0
  1  3  1  0  0  0  0
  1  6  1  0  0  0  0
  2  4  1  0  0  0  0
  2  9  1  0  0  0  0
  3  5  1  0  0  0  0
  4  5  2  0  0  0  0
  4 20  1  0  0  0  0
  5 21  1  0  0  0  0
  6 11  1  0  0  0  0
  6 26  1  0  0  0  0
  7 12  2  0  0  0  0
  7 13  1  0  0  0  0
  7 14  1  0  0  0  0
  8 10  1  0  0  0  0
  8 13  2  0  0  0  0
  9 16  2  0  0  0  0
  9 19  1  0  0  0  0
 10 12  1  0  0  0  0
 10 22  1  0  0  0  0
 11 17  2  0  0  0  0
 11 18  1  0  0  0  0
 12 27  1  0  0  0  0
 13 28  1  0  0  0  0
 14 15  1  0  0  0  0
 14 29  1  0  0  0  0
 14 30  1  0  0  0  0
 15 18  1  0  0  0  0
 15 23  1  0  0  0  0
 15 31  1  0  0  0  0
 18 32  1  0  0  0  0
 18 33  1  0  0  0  0
 19 24  1  0  0  0  0
 20 34  1  0  0  0  0
 20 35  1  0  0  0  0
 20 36  1  0  0  0  0
 21 37  1  0  0  0  0
 21 38  1  0  0  0  0
 21 39  1  0  0  0  0
 22 25  1  0  0  0  0
 22 40  1  0  0  0  0
 22 41  1  0  0  0  0
 23 42  1  0  0  0  0
 23 43  1  0  0  0  0
 23 44  1  0  0  0  0
 24 45  1  0  0  0  0
 24 46  1  0  0  0  0
 24 47  1  0  0  0  0
 25 48  1  0  0  0  0
 25 49  1  0  0  0  0
 25 50  1  0  0  0  0
M  CHG  1  15   1
M  END
>  <$CLUSTER>
774

>  <INDEX>
505845

$$$$
Chem T&I AMCLME-04649
  MOE2020           3D

 49 52  0  0  0  0  0  0  0  0999 V2000
    6.5280   -2.4190   -0.2170 S   0  0  0  0  0  0  0  0  0  0  0  0
    0.2290    0.3540    1.0610 N   0  0  0  0  0  0  0  0  0  0  0  0
    5.1300   -1.5350   -0.4610 N   0  0  0  0  0  0  0  0  0  0  0  0
   -0.9350    0.0590    1.5950 C   0  0  0  0  0  0  0  0  0  0  0  0
    0.1540    0.2100   -0.3170 C   0  0  0  0  0  0  0  0  0  0  0  0
   -2.1750   -0.4050    0.5070 S   0  0  0  0  0  0  0  0  0  0  0  0
    7.2550   -0.6310   -0.0900 C   0  0  0  0  0  0  0  0  0  0  0  0
   -1.0780   -0.1980   -0.7940 C   0  0  0  0  0  0  0  0  0  0  0  0
    2.4390   -0.5150   -0.9270 N   0  3  0  0  0  0  0  0  0  0  0  0
    7.1980   -2.9040   -1.3770 O   0  0  0  0  0  0  0  0  0  0  0  0
    6.7650   -2.9040    1.1020 O   0  0  0  0  0  0  0  0  0  0  0  0
    4.5110   -1.5760   -1.7970 C   0  0  0  0  0  0  0  0  0  0  0  0
    4.0950   -1.5760    0.5870 C   0  0  0  0  0  0  0  0  0  0  0  0
    1.3660    0.4940   -1.1240 C   0  0  0  0  0  0  0  0  0  0  0  0
   -1.1680    0.1420    3.0380 C   0  0  0  0  0  0  0  0  0  0  0  0
    3.0790   -0.4640    0.4430 C   0  0  0  0  0  0  0  0  0  0  0  0
    3.4970   -0.4590   -2.0030 C   0  0  0  0  0  0  0  0  0  0  0  0
    7.5450   -0.0630    1.1930 C   0  0  0  0  0  0  0  0  0  0  0  0
    7.9620   -0.0640   -1.1990 C   0  0  0  0  0  0  0  0  0  0  0  0
    8.7400    1.7730    0.1680 C   0  0  0  0  0  0  0  0  0  0  0  0
    8.6190    1.1610   -1.0800 C   0  0  0  0  0  0  0  0  0  0  0  0
    8.2040    1.1610    1.3020 C   0  0  0  0  0  0  0  0  0  0  0  0
    9.5450    3.2690    0.2990 Cl  0  0  0  0  0  0  0  0  0  0  0  0
   -0.2870    0.8960    3.8280 C   0  0  0  0  0  0  0  0  0  0  0  0
   -2.2380   -0.5160    3.6540 C   0  0  0  0  0  0  0  0  0  0  0  0
   -2.4280   -0.4130    5.0350 C   0  0  0  0  0  0  0  0  0  0  0  0
   -0.4810    0.9960    5.2070 C   0  0  0  0  0  0  0  0  0  0  0  0
   -1.5520    0.3430    5.8110 C   0  0  0  0  0  0  0  0  0  0  0  0
   -1.3150   -0.3620   -1.8350 H   0  0  0  0  0  0  0  0  0  0  0  0
    1.9630   -1.4030   -0.9990 H   0  0  0  0  0  0  0  0  0  0  0  0
    4.0060   -2.5340   -1.9190 H   0  0  0  0  0  0  0  0  0  0  0  0
    5.2950   -1.4800   -2.5490 H   0  0  0  0  0  0  0  0  0  0  0  0
    4.5790   -1.4840    1.5590 H   0  0  0  0  0  0  0  0  0  0  0  0
    3.5760   -2.5330    0.5290 H   0  0  0  0  0  0  0  0  0  0  0  0
    1.7520    1.4730   -0.8400 H   0  0  0  0  0  0  0  0  0  0  0  0
    1.0880    0.5050   -2.1780 H   0  0  0  0  0  0  0  0  0  0  0  0
    2.3080   -0.5800    1.2050 H   0  0  0  0  0  0  0  0  0  0  0  0
    3.5760    0.4970    0.5720 H   0  0  0  0  0  0  0  0  0  0  0  0
    4.0070    0.5040   -1.9580 H   0  0  0  0  0  0  0  0  0  0  0  0
    3.0260   -0.5750   -2.9790 H   0  0  0  0  0  0  0  0  0  0  0  0
    7.2490   -0.5900    2.0880 H   0  0  0  0  0  0  0  0  0  0  0  0
    7.9870   -0.5920   -2.1410 H   0  0  0  0  0  0  0  0  0  0  0  0
    9.0350    1.6370   -1.9560 H   0  0  0  0  0  0  0  0  0  0  0  0
    8.3000    1.6370    2.2670 H   0  0  0  0  0  0  0  0  0  0  0  0
    0.5470    1.4030    3.3660 H   0  0  0  0  0  0  0  0  0  0  0  0
   -2.9200   -1.1060    3.0600 H   0  0  0  0  0  0  0  0  0  0  0  0
   -3.2580   -0.9220    5.5030 H   0  0  0  0  0  0  0  0  0  0  0  0
    0.2010    1.5810    5.8060 H   0  0  0  0  0  0  0  0  0  0  0  0
   -1.7030    0.4220    6.8770 H   0  0  0  0  0  0  0  0  0  0  0  0
  1  3  1  0  0  0  0
  1  7  1  0  0  0  0
  1 10  2  0  0  0  0
  1 11  2  0  0  0  0
  2  4  2  0  0  0  0
  2  5  1  0  0  0  0
  3 12  1  0  0  0  0
  3 13  1  0  0  0  0
  4  6  1  0  0  0  0
  4 15  1  0  0  0  0
  5  8  2  0  0  0  0
  5 14  1  0  0  0  0
  6  8  1  0  0  0  0
  7 18  1  0  0  0  0
  7 19  2  0  0  0  0
  8 29  1  0  0  0  0
  9 14  1  0  0  0  0
  9 16  1  0  0  0  0
  9 17  1  0  0  0  0
  9 30  1  0  0  0  0
 12 17  1  0  0  0  0
 12 31  1  0  0  0  0
 12 32  1  0  0  0  0
 13 16  1  0  0  0  0
 13 33  1  0  0  0  0
 13 34  1  0  0  0  0
 14 35  1  0  0  0  0
 14 36  1  0  0  0  0
 15 24  1  0  0  0  0
 15 25  2  0  0  0  0
 16 37  1  0  0  0  0
 16 38  1  0  0  0  0
 17 39  1  0  0  0  0
 17 40  1  0  0  0  0
 18 22  2  0  0  0  0
 18 41  1  0  0  0  0
 19 21  1  0  0  0  0
 19 42  1  0  0  0  0
 20 21  2  0  0  0  0
 20 22  1  0  0  0  0
 20 23  1  0  0  0  0
 21 43  1  0  0  0  0
 22 44  1  0  0  0  0
 24 27  2  0  0  0  0
 24 45  1  0  0  0  0
 25 26  1  0  0  0  0
 25 46  1  0  0  0  0
 26 28  2  0  0  0  0
 26 47  1  0  0  0  0
 27 28  1  0  0  0  0
 27 48  1  0  0  0  0
 28 49  1  0  0  0  0
M  CHG  1   9   1
M  END
>  <$CLUSTER>
775

>  <INDEX>
508182

$$$$
Chem T&I AMCLME-04601
  MOE2020           3D

 50 52  0  0  0  0  0  0  0  0999 V2000
   -1.2660    1.1460   -0.4770 S   0  0  0  0  0  0  0  0  0  0  0  0
   -2.6300    0.3030    0.0970 N   0  0  0  0  0  0  0  0  0  0  0  0
    0.0200    0.0250   -0.0150 C   0  0  0  0  0  0  0  0  0  0  0  0
   -6.0240   -2.4730    3.0370 C   0  0  0  0  0  0  0  0  0  0  0  0
   -4.6170   -1.4830    1.2250 N   0  3  0  0  0  0  0  0  0  0  0  0
   -1.0970    2.3580    0.3000 O   0  0  0  0  0  0  0  0  0  0  0  0
   -1.3130    1.1930   -1.9250 O   0  0  0  0  0  0  0  0  0  0  0  0
   -2.8390    0.1980    1.5680 C   0  0  0  0  0  0  0  0  0  0  0  0
   -3.0510   -0.9400   -0.6070 C   0  0  0  0  0  0  0  0  0  0  0  0
   -7.2630   -2.9160    3.4020 N   0  0  0  0  0  0  0  0  0  0  0  0
   -5.9860   -1.9660    1.6100 C   0  0  0  0  0  0  0  0  0  0  0  0
   -5.0380   -2.4770    3.7700 O   0  0  0  0  0  0  0  0  0  0  0  0
   -4.2520   -0.1990    1.9210 C   0  0  0  0  0  0  0  0  0  0  0  0
   -4.4640   -1.3440   -0.2670 C   0  0  0  0  0  0  0  0  0  0  0  0
    0.4300   -0.9590   -0.9150 C   0  0  0  0  0  0  0  0  0  0  0  0
    0.6380    0.1630    1.2280 C   0  0  0  0  0  0  0  0  0  0  0  0
   -7.7170   -3.4580    4.6270 C   0  0  0  0  0  0  0  0  0  0  0  0
    2.0840   -1.6990    0.6870 C   0  0  0  0  0  0  0  0  0  0  0  0
    1.4640   -1.8240   -0.5570 C   0  0  0  0  0  0  0  0  0  0  0  0
    1.6710   -0.7070    1.5770 C   0  0  0  0  0  0  0  0  0  0  0  0
   -8.7320   -4.5470    7.0100 C   0  0  0  0  0  0  0  0  0  0  0  0
    3.3450   -2.7630    1.1110 Cl  0  0  0  0  0  0  0  0  0  0  0  0
   -6.8840   -3.6330    5.7360 C   0  0  0  0  0  0  0  0  0  0  0  0
   -9.0650   -3.8360    4.7270 C   0  0  0  0  0  0  0  0  0  0  0  0
   -9.5690   -4.3770    5.9110 C   0  0  0  0  0  0  0  0  0  0  0  0
   -7.3920   -4.1760    6.9210 C   0  0  0  0  0  0  0  0  0  0  0  0
   -9.2720   -5.1260    8.2750 C   0  0  0  0  0  0  0  0  0  0  0  0
   -3.9700   -2.1940    1.5350 H   0  0  0  0  0  0  0  0  0  0  0  0
   -2.6230    1.1650    2.0220 H   0  0  0  0  0  0  0  0  0  0  0  0
   -2.1550   -0.5510    1.9660 H   0  0  0  0  0  0  0  0  0  0  0  0
   -2.3780   -1.7490   -0.3220 H   0  0  0  0  0  0  0  0  0  0  0  0
   -2.9840   -0.7730   -1.6820 H   0  0  0  0  0  0  0  0  0  0  0  0
   -7.9680   -2.8450    2.6820 H   0  0  0  0  0  0  0  0  0  0  0  0
   -6.6920   -1.1420    1.5100 H   0  0  0  0  0  0  0  0  0  0  0  0
   -6.2760   -2.7760    0.9400 H   0  0  0  0  0  0  0  0  0  0  0  0
   -4.3290   -0.3390    2.9990 H   0  0  0  0  0  0  0  0  0  0  0  0
   -4.9370    0.5890    1.6070 H   0  0  0  0  0  0  0  0  0  0  0  0
   -5.1540   -0.5830   -0.6310 H   0  0  0  0  0  0  0  0  0  0  0  0
   -4.6910   -2.2980   -0.7430 H   0  0  0  0  0  0  0  0  0  0  0  0
   -0.0480   -1.0500   -1.8790 H   0  0  0  0  0  0  0  0  0  0  0  0
    0.3200    0.9350    1.9130 H   0  0  0  0  0  0  0  0  0  0  0  0
    1.7860   -2.5920   -1.2440 H   0  0  0  0  0  0  0  0  0  0  0  0
    2.1530   -0.6120    2.5390 H   0  0  0  0  0  0  0  0  0  0  0  0
   -5.8440   -3.3480    5.6780 H   0  0  0  0  0  0  0  0  0  0  0  0
   -9.7200   -3.7070    3.8780 H   0  0  0  0  0  0  0  0  0  0  0  0
  -10.6080   -4.6640    5.9740 H   0  0  0  0  0  0  0  0  0  0  0  0
   -6.7410   -4.3080    7.7730 H   0  0  0  0  0  0  0  0  0  0  0  0
  -10.3310   -5.3510    8.1490 H   0  0  0  0  0  0  0  0  0  0  0  0
   -9.1470   -4.4080    9.0860 H   0  0  0  0  0  0  0  0  0  0  0  0
   -8.7320   -6.0420    8.5150 H   0  0  0  0  0  0  0  0  0  0  0  0
  1  2  1  0  0  0  0
  1  3  1  0  0  0  0
  1  6  2  0  0  0  0
  1  7  2  0  0  0  0
  2  8  1  0  0  0  0
  2  9  1  0  0  0  0
  3 15  2  0  0  0  0
  3 16  1  0  0  0  0
  4 10  1  0  0  0  0
  4 11  1  0  0  0  0
  4 12  2  0  0  0  0
  5 11  1  0  0  0  0
  5 13  1  0  0  0  0
  5 14  1  0  0  0  0
  5 28  1  0  0  0  0
  8 13  1  0  0  0  0
  8 29  1  0  0  0  0
  8 30  1  0  0  0  0
  9 14  1  0  0  0  0
  9 31  1  0  0  0  0
  9 32  1  0  0  0  0
 10 17  1  0  0  0  0
 10 33  1  0  0  0  0
 11 34  1  0  0  0  0
 11 35  1  0  0  0  0
 13 36  1  0  0  0  0
 13 37  1  0  0  0  0
 14 38  1  0  0  0  0
 14 39  1  0  0  0  0
 15 19  1  0  0  0  0
 15 40  1  0  0  0  0
 16 20  2  0  0  0  0
 16 41  1  0  0  0  0
 17 23  1  0  0  0  0
 17 24  2  0  0  0  0
 18 19  2  0  0  0  0
 18 20  1  0  0  0  0
 18 22  1  0  0  0  0
 19 42  1  0  0  0  0
 20 43  1  0  0  0  0
 21 25  2  0  0  0  0
 21 26  1  0  0  0  0
 21 27  1  0  0  0  0
 23 26  2  0  0  0  0
 23 44  1  0  0  0  0
 24 25  1  0  0  0  0
 24 45  1  0  0  0  0
 25 46  1  0  0  0  0
 26 47  1  0  0  0  0
 27 48  1  0  0  0  0
 27 49  1  0  0  0  0
 27 50  1  0  0  0  0
M  CHG  1   5   1
M  END
>  <$CLUSTER>
776

>  <INDEX>
508152

$$$$
Chem T&I AMCLME-05084
  MOE2020           3D

 45 47  0  0  0  0  0  0  0  0999 V2000
   -1.0040    0.8330    0.0570 C   0  0  0  0  0  0  0  0  0  0  0  0
    2.4760   -2.9860   -1.1660 C   0  0  0  0  0  0  0  0  0  0  0  0
    1.0300   -1.2640   -0.0600 N   0  3  0  0  0  0  0  0  0  0  0  0
   -0.7350    0.0280   -1.2180 C   0  0  0  0  0  0  0  0  0  0  0  0
   -0.5910    0.0280    1.2940 C   0  0  0  0  0  0  0  0  0  0  0  0
    3.7160   -3.5450   -1.2460 N   0  0  0  0  0  0  0  0  0  0  0  0
   -0.2600    2.0480    0.0370 O   0  0  0  0  0  0  0  0  0  0  0  0
   -2.3970    1.1260    0.1170 O   0  0  0  0  0  0  0  0  0  0  0  0
    2.4040   -1.8730   -0.1380 C   0  0  0  0  0  0  0  0  0  0  0  0
    1.5080   -3.3280   -1.8410 O   0  0  0  0  0  0  0  0  0  0  0  0
    0.7050   -0.4620   -1.2970 C   0  0  0  0  0  0  0  0  0  0  0  0
    0.8480   -0.4630    1.2080 C   0  0  0  0  0  0  0  0  0  0  0  0
    4.1960   -4.5940   -2.0650 C   0  0  0  0  0  0  0  0  0  0  0  0
    5.2610   -6.6630   -3.6390 C   0  0  0  0  0  0  0  0  0  0  0  0
    3.3920   -5.2640   -2.9910 C   0  0  0  0  0  0  0  0  0  0  0  0
    5.5410   -4.9730   -1.9380 C   0  0  0  0  0  0  0  0  0  0  0  0
    6.0700   -6.0020   -2.7200 C   0  0  0  0  0  0  0  0  0  0  0  0
    3.9250   -6.2940   -3.7740 C   0  0  0  0  0  0  0  0  0  0  0  0
    5.8910   -7.6550   -4.3500 O   0  0  0  0  0  0  0  0  0  0  0  0
   -1.1930    3.0630    0.3650 C   0  0  0  0  0  0  0  0  0  0  0  0
   -2.4960    2.5170   -0.1520 C   0  0  0  0  0  0  0  0  0  0  0  0
    5.1080   -8.3630   -5.3040 C   0  0  0  0  0  0  0  0  0  0  0  0
    0.3640   -2.0220   -0.0230 H   0  0  0  0  0  0  0  0  0  0  0  0
   -0.9380    0.6610   -2.0820 H   0  0  0  0  0  0  0  0  0  0  0  0
   -1.4010   -0.8350   -1.2350 H   0  0  0  0  0  0  0  0  0  0  0  0
   -1.2510   -0.8340    1.3880 H   0  0  0  0  0  0  0  0  0  0  0  0
   -0.6940    0.6610    2.1750 H   0  0  0  0  0  0  0  0  0  0  0  0
    4.4020   -3.1470   -0.6210 H   0  0  0  0  0  0  0  0  0  0  0  0
    3.1180   -1.0960   -0.4100 H   0  0  0  0  0  0  0  0  0  0  0  0
    2.6650   -2.2790    0.8390 H   0  0  0  0  0  0  0  0  0  0  0  0
    0.8280   -1.0890   -2.1800 H   0  0  0  0  0  0  0  0  0  0  0  0
    1.3770    0.3940   -1.3630 H   0  0  0  0  0  0  0  0  0  0  0  0
    1.5240    0.3920    1.1980 H   0  0  0  0  0  0  0  0  0  0  0  0
    1.0700   -1.0920    2.0700 H   0  0  0  0  0  0  0  0  0  0  0  0
    2.3550   -4.9860   -3.1030 H   0  0  0  0  0  0  0  0  0  0  0  0
    6.1740   -4.4630   -1.2270 H   0  0  0  0  0  0  0  0  0  0  0  0
    7.1070   -6.2850   -2.6110 H   0  0  0  0  0  0  0  0  0  0  0  0
    3.2960   -6.8060   -4.4870 H   0  0  0  0  0  0  0  0  0  0  0  0
   -0.9390    4.0010   -0.1290 H   0  0  0  0  0  0  0  0  0  0  0  0
   -1.2360    3.2200    1.4430 H   0  0  0  0  0  0  0  0  0  0  0  0
   -3.3410    2.9580    0.3770 H   0  0  0  0  0  0  0  0  0  0  0  0
   -2.6000    2.7020   -1.2210 H   0  0  0  0  0  0  0  0  0  0  0  0
    5.7250   -9.1160   -5.7940 H   0  0  0  0  0  0  0  0  0  0  0  0
    4.7260   -7.6660   -6.0500 H   0  0  0  0  0  0  0  0  0  0  0  0
    4.2730   -8.8490   -4.8000 H   0  0  0  0  0  0  0  0  0  0  0  0
  1  4  1  0  0  0  0
  1  5  1  0  0  0  0
  1  7  1  0  0  0  0
  1  8  1  0  0  0  0
  2  6  1  0  0  0  0
  2  9  1  0  0  0  0
  2 10  2  0  0  0  0
  3  9  1  0  0  0  0
  3 11  1  0  0  0  0
  3 12  1  0  0  0  0
  3 23  1  0  0  0  0
  4 11  1  0  0  0  0
  4 24  1  0  0  0  0
  4 25  1  0  0  0  0
  5 12  1  0  0  0  0
  5 26  1  0  0  0  0
  5 27  1  0  0  0  0
  6 13  1  0  0  0  0
  6 28  1  0  0  0  0
  7 20  1  0  0  0  0
  8 21  1  0  0  0  0
  9 29  1  0  0  0  0
  9 30  1  0  0  0  0
 11 31  1  0  0  0  0
 11 32  1  0  0  0  0
 12 33  1  0  0  0  0
 12 34  1  0  0  0  0
 13 15  1  0  0  0  0
 13 16  2  0  0  0  0
 14 17  2  0  0  0  0
 14 18  1  0  0  0  0
 14 19  1  0  0  0  0
 15 18  2  0  0  0  0
 15 35  1  0  0  0  0
 16 17  1  0  0  0  0
 16 36  1  0  0  0  0
 17 37  1  0  0  0  0
 18 38  1  0  0  0  0
 19 22  1  0  0  0  0
 20 21  1  0  0  0  0
 20 39  1  0  0  0  0
 20 40  1  0  0  0  0
 21 41  1  0  0  0  0
 21 42  1  0  0  0  0
 22 43  1  0  0  0  0
 22 44  1  0  0  0  0
 22 45  1  0  0  0  0
M  CHG  1   3   1
M  END
>  <$CLUSTER>
777

>  <INDEX>
508469

$$$$
Chem T&I AMCLME-09915
  MOE2020           3D

 49 51  0  0  0  0  0  0  0  0999 V2000
   -0.8790    0.6540   -1.4750 N   0  0  0  0  0  0  0  0  0  0  0  0
   -1.9750    0.8410   -2.2100 C   0  0  0  0  0  0  0  0  0  0  0  0
    1.7250   -0.1890    3.0200 C   0  0  0  0  0  0  0  0  0  0  0  0
    0.6190   -0.3270    0.7830 N   0  3  0  0  0  0  0  0  0  0  0  0
    1.9140   -0.7840    4.2350 N   0  0  0  0  0  0  0  0  0  0  0  0
   -2.3540   -0.1200   -3.0990 N   0  0  0  0  0  0  0  0  0  0  0  0
   -0.3300    1.5760   -0.4800 C   0  0  0  0  0  0  0  0  0  0  0  0
   -0.0580   -0.5530   -1.5850 C   0  0  0  0  0  0  0  0  0  0  0  0
    0.8160   -0.9940    2.1140 C   0  0  0  0  0  0  0  0  0  0  0  0
    2.2280    0.8790    2.6800 O   0  0  0  0  0  0  0  0  0  0  0  0
   -0.2240    0.9210    0.8930 C   0  0  0  0  0  0  0  0  0  0  0  0
    0.0570   -1.2770   -0.2490 C   0  0  0  0  0  0  0  0  0  0  0  0
    2.6790   -0.3670    5.3480 C   0  0  0  0  0  0  0  0  0  0  0  0
    4.1630    0.3580    7.6210 C   0  0  0  0  0  0  0  0  0  0  0  0
    3.4170    0.8200    5.3630 C   0  0  0  0  0  0  0  0  0  0  0  0
    2.6940   -1.1870    6.4870 C   0  0  0  0  0  0  0  0  0  0  0  0
    3.4320   -0.8260    7.6170 C   0  0  0  0  0  0  0  0  0  0  0  0
    4.1550    1.1790    6.4960 C   0  0  0  0  0  0  0  0  0  0  0  0
   -2.7460    2.0040   -2.0900 C   0  0  0  0  0  0  0  0  0  0  0  0
   -3.4670    0.0690   -3.8460 C   0  0  0  0  0  0  0  0  0  0  0  0
    4.9510    0.7600    8.8490 C   0  0  0  0  0  0  0  0  0  0  0  0
    4.1140    1.5950    9.8060 C   0  0  0  0  0  0  0  0  0  0  0  0
   -3.8900    2.1740   -2.8720 C   0  0  0  0  0  0  0  0  0  0  0  0
   -4.2640    1.1910   -3.7710 C   0  0  0  0  0  0  0  0  0  0  0  0
    1.5350   -0.0440    0.4660 H   0  0  0  0  0  0  0  0  0  0  0  0
    1.4300   -1.6620    4.3580 H   0  0  0  0  0  0  0  0  0  0  0  0
   -0.9810    2.4470   -0.4070 H   0  0  0  0  0  0  0  0  0  0  0  0
    0.6630    1.8910   -0.7990 H   0  0  0  0  0  0  0  0  0  0  0  0
    0.9400   -0.2730   -1.9220 H   0  0  0  0  0  0  0  0  0  0  0  0
   -0.5120   -1.2250   -2.3130 H   0  0  0  0  0  0  0  0  0  0  0  0
   -0.1540   -1.1070    2.5980 H   0  0  0  0  0  0  0  0  0  0  0  0
    1.2590   -1.9770    1.9540 H   0  0  0  0  0  0  0  0  0  0  0  0
    0.2410    1.6150    1.5930 H   0  0  0  0  0  0  0  0  0  0  0  0
   -1.2200    0.6580    1.2500 H   0  0  0  0  0  0  0  0  0  0  0  0
   -0.9290   -1.6180    0.0670 H   0  0  0  0  0  0  0  0  0  0  0  0
    0.7210   -2.1350   -0.3550 H   0  0  0  0  0  0  0  0  0  0  0  0
    3.4170    1.4630    4.4950 H   0  0  0  0  0  0  0  0  0  0  0  0
    2.1290   -2.1070    6.4900 H   0  0  0  0  0  0  0  0  0  0  0  0
    3.4350   -1.4660    8.4870 H   0  0  0  0  0  0  0  0  0  0  0  0
    4.7220    2.0980    6.4980 H   0  0  0  0  0  0  0  0  0  0  0  0
   -2.4540    2.7730   -1.3900 H   0  0  0  0  0  0  0  0  0  0  0  0
   -3.7480   -0.7070   -4.5430 H   0  0  0  0  0  0  0  0  0  0  0  0
    5.8180    1.3430    8.5370 H   0  0  0  0  0  0  0  0  0  0  0  0
    5.2850   -0.1400    9.3650 H   0  0  0  0  0  0  0  0  0  0  0  0
    3.7750    2.4980    9.2990 H   0  0  0  0  0  0  0  0  0  0  0  0
    4.7170    1.8690   10.6720 H   0  0  0  0  0  0  0  0  0  0  0  0
    3.2500    1.0160   10.1330 H   0  0  0  0  0  0  0  0  0  0  0  0
   -4.4820    3.0720   -2.7750 H   0  0  0  0  0  0  0  0  0  0  0  0
   -5.1440    1.2980   -4.3880 H   0  0  0  0  0  0  0  0  0  0  0  0
  1  2  1  0  0  0  0
  1  7  1  0  0  0  0
  1  8  1  0  0  0  0
  2  6  2  0  0  0  0
  2 19  1  0  0  0  0
  3  5  1  0  0  0  0
  3  9  1  0  0  0  0
  3 10  2  0  0  0  0
  4  9  1  0  0  0  0
  4 11  1  0  0  0  0
  4 12  1  0  0  0  0
  4 25  1  0  0  0  0
  5 13  1  0  0  0  0
  5 26  1  0  0  0  0
  6 20  1  0  0  0  0
  7 11  1  0  0  0  0
  7 27  1  0  0  0  0
  7 28  1  0  0  0  0
  8 12  1  0  0  0  0
  8 29  1  0  0  0  0
  8 30  1  0  0  0  0
  9 31  1  0  0  0  0
  9 32  1  0  0  0  0
 11 33  1  0  0  0  0
 11 34  1  0  0  0  0
 12 35  1  0  0  0  0
 12 36  1  0  0  0  0
 13 15  1  0  0  0  0
 13 16  2  0  0  0  0
 14 17  2  0  0  0  0
 14 18  1  0  0  0  0
 14 21  1  0  0  0  0
 15 18  2  0  0  0  0
 15 37  1  0  0  0  0
 16 17  1  0  0  0  0
 16 38  1  0  0  0  0
 17 39  1  0  0  0  0
 18 40  1  0  0  0  0
 19 23  2  0  0  0  0
 19 41  1  0  0  0  0
 20 24  2  0  0  0  0
 20 42  1  0  0  0  0
 21 22  1  0  0  0  0
 21 43  1  0  0  0  0
 21 44  1  0  0  0  0
 22 45  1  0  0  0  0
 22 46  1  0  0  0  0
 22 47  1  0  0  0  0
 23 24  1  0  0  0  0
 23 48  1  0  0  0  0
 24 49  1  0  0  0  0
M  CHG  1   4   1
M  END
>  <$CLUSTER>
778

>  <INDEX>
510870

$$$$
Princeton Biomolecular OSSK_461350
  MOE2020           3D

 47 49  0  0  0  0  0  0  0  0999 V2000
   -1.6390   -0.2900   -0.7790 N   0  0  0  0  0  0  0  0  0  0  0  0
   -2.8810   -0.8010   -0.7840 C   0  0  0  0  0  0  0  0  0  0  0  0
   -3.9890   -0.0830   -0.2870 C   0  0  0  0  0  0  0  0  0  0  0  0
    3.3980   -0.1830    0.7430 C   0  0  0  0  0  0  0  0  0  0  0  0
    0.9690    0.2370    0.3290 N   0  3  0  0  0  0  0  0  0  0  0  0
   -5.2850   -0.6130   -0.2910 C   0  0  0  0  0  0  0  0  0  0  0  0
    4.4000   -0.2470    1.6680 N   0  0  0  0  0  0  0  0  0  0  0  0
   -0.4550   -0.9880   -1.2800 C   0  0  0  0  0  0  0  0  0  0  0  0
   -1.2930    1.0380   -0.2700 C   0  0  0  0  0  0  0  0  0  0  0  0
    2.0610    0.1750    1.3580 C   0  0  0  0  0  0  0  0  0  0  0  0
   -5.5180   -1.8850   -0.7950 C   0  0  0  0  0  0  0  0  0  0  0  0
    3.5440   -0.3880   -0.4600 O   0  0  0  0  0  0  0  0  0  0  0  0
   -3.1590   -2.0890   -1.2870 C   0  0  0  0  0  0  0  0  0  0  0  0
   -4.4530   -2.6240   -1.2940 C   0  0  0  0  0  0  0  0  0  0  0  0
   -0.2540    0.9600    0.8430 C   0  0  0  0  0  0  0  0  0  0  0  0
    0.6120   -1.1320   -0.2010 C   0  0  0  0  0  0  0  0  0  0  0  0
    5.7730   -0.5450    1.5110 C   0  0  0  0  0  0  0  0  0  0  0  0
   -6.5710    0.3190    0.3290 Cl  0  0  0  0  0  0  0  0  0  0  0  0
    8.5160   -1.1220    1.3200 C   0  0  0  0  0  0  0  0  0  0  0  0
    9.8220   -1.3850    1.3070 F   0  0  0  0  0  0  0  0  0  0  0  0
    6.3500   -0.8420    0.2720 C   0  0  0  0  0  0  0  0  0  0  0  0
    6.5890   -0.5410    2.6530 C   0  0  0  0  0  0  0  0  0  0  0  0
    7.9520   -0.8270    2.5580 C   0  0  0  0  0  0  0  0  0  0  0  0
    7.7160   -1.1290    0.1800 C   0  0  0  0  0  0  0  0  0  0  0  0
   -6.8940   -2.4580   -0.8040 C   0  0  0  0  0  0  0  0  0  0  0  0
   -3.8320    0.9090    0.1100 H   0  0  0  0  0  0  0  0  0  0  0  0
    1.3340    0.7740   -0.4440 H   0  0  0  0  0  0  0  0  0  0  0  0
    4.1150   -0.0500    2.6170 H   0  0  0  0  0  0  0  0  0  0  0  0
   -0.0390   -0.4240   -2.1150 H   0  0  0  0  0  0  0  0  0  0  0  0
   -0.7480   -1.9810   -1.6220 H   0  0  0  0  0  0  0  0  0  0  0  0
   -2.1930    1.5130    0.1190 H   0  0  0  0  0  0  0  0  0  0  0  0
   -0.8910    1.6360   -1.0880 H   0  0  0  0  0  0  0  0  0  0  0  0
    2.1450    1.1480    1.8420 H   0  0  0  0  0  0  0  0  0  0  0  0
    1.8020   -0.5790    2.1010 H   0  0  0  0  0  0  0  0  0  0  0  0
   -2.3470   -2.6820   -1.6800 H   0  0  0  0  0  0  0  0  0  0  0  0
   -4.6240   -3.6150   -1.6890 H   0  0  0  0  0  0  0  0  0  0  0  0
    0.0220    1.9670    1.1560 H   0  0  0  0  0  0  0  0  0  0  0  0
   -0.6690    0.4170    1.6920 H   0  0  0  0  0  0  0  0  0  0  0  0
    0.2280   -1.7490    0.6110 H   0  0  0  0  0  0  0  0  0  0  0  0
    1.4990   -1.6010   -0.6260 H   0  0  0  0  0  0  0  0  0  0  0  0
    5.7380   -0.8500   -0.6180 H   0  0  0  0  0  0  0  0  0  0  0  0
    6.1570   -0.3140    3.6170 H   0  0  0  0  0  0  0  0  0  0  0  0
    8.5690   -0.8190    3.4450 H   0  0  0  0  0  0  0  0  0  0  0  0
    8.1530   -1.3570   -0.7810 H   0  0  0  0  0  0  0  0  0  0  0  0
   -7.5910   -1.7370   -0.3760 H   0  0  0  0  0  0  0  0  0  0  0  0
   -6.9100   -3.3740   -0.2130 H   0  0  0  0  0  0  0  0  0  0  0  0
   -7.1880   -2.6820   -1.8300 H   0  0  0  0  0  0  0  0  0  0  0  0
  1  2  1  0  0  0  0
  1  8  1  0  0  0  0
  1  9  1  0  0  0  0
  2  3  1  0  0  0  0
  2 13  2  0  0  0  0
  3  6  2  0  0  0  0
  3 26  1  0  0  0  0
  4  7  1  0  0  0  0
  4 10  1  0  0  0  0
  4 12  2  0  0  0  0
  5 10  1  0  0  0  0
  5 15  1  0  0  0  0
  5 16  1  0  0  0  0
  5 27  1  0  0  0  0
  6 11  1  0  0  0  0
  6 18  1  0  0  0  0
  7 17  1  0  0  0  0
  7 28  1  0  0  0  0
  8 16  1  0  0  0  0
  8 29  1  0  0  0  0
  8 30  1  0  0  0  0
  9 15  1  0  0  0  0
  9 31  1  0  0  0  0
  9 32  1  0  0  0  0
 10 33  1  0  0  0  0
 10 34  1  0  0  0  0
 11 14  2  0  0  0  0
 11 25  1  0  0  0  0
 13 14  1  0  0  0  0
 13 35  1  0  0  0  0
 14 36  1  0  0  0  0
 15 37  1  0  0  0  0
 15 38  1  0  0  0  0
 16 39  1  0  0  0  0
 16 40  1  0  0  0  0
 17 21  1  0  0  0  0
 17 22  2  0  0  0  0
 19 20  1  0  0  0  0
 19 23  2  0  0  0  0
 19 24  1  0  0  0  0
 21 24  2  0  0  0  0
 21 41  1  0  0  0  0
 22 23  1  0  0  0  0
 22 42  1  0  0  0  0
 23 43  1  0  0  0  0
 24 44  1  0  0  0  0
 25 45  1  0  0  0  0
 25 46  1  0  0  0  0
 25 47  1  0  0  0  0
M  CHG  1   5   1
M  END
>  <$CLUSTER>
779

>  <INDEX>
584486

$$$$
Chem T&I AMCLME-07310
  MOE2020           3D

 41 43  0  0  0  0  0  0  0  0999 V2000
    1.4910    0.1590    1.1870 C   0  0  0  0  0  0  0  0  0  0  0  0
    2.4020    0.0080    2.1370 N   0  3  0  0  0  0  0  0  0  0  0  0
   -0.0670   -0.2090   -0.3040 N   0  0  0  0  0  0  0  0  0  0  0  0
    0.7250   -0.8310    0.6210 C   0  0  0  0  0  0  0  0  0  0  0  0
    0.1370    1.1220   -0.3800 N   0  0  0  0  0  0  0  0  0  0  0  0
    1.0870    1.3380    0.5330 C   0  0  0  0  0  0  0  0  0  0  0  0
   -2.3290   -0.7390   -0.4920 N   0  0  0  0  0  0  0  0  0  0  0  0
   -1.0450   -0.8400   -1.1660 C   0  0  0  0  0  0  0  0  0  0  0  0
   -4.8690   -1.8860    0.3800 N   0  0  0  0  0  0  0  0  0  0  0  0
    2.6360   -1.1140    2.6080 O   0  5  0  0  0  0  0  0  0  0  0  0
    2.9740    1.0460    2.4980 O   0  0  0  0  0  0  0  0  0  0  0  0
   -6.1860   -1.7970    1.0080 C   0  0  0  0  0  0  0  0  0  0  0  0
   -2.4530   -1.6200    0.6730 C   0  0  0  0  0  0  0  0  0  0  0  0
   -3.4130   -1.1280   -1.4670 C   0  0  0  0  0  0  0  0  0  0  0  0
   -3.8100   -1.5270    1.3320 C   0  0  0  0  0  0  0  0  0  0  0  0
   -4.7980   -1.0280   -0.8100 C   0  0  0  0  0  0  0  0  0  0  0  0
   -7.3130   -2.3910    0.1770 C   0  0  0  0  0  0  0  0  0  0  0  0
   -7.9290   -1.6170   -0.8040 C   0  0  0  0  0  0  0  0  0  0  0  0
   -7.6550   -3.7310    0.3310 C   0  0  0  0  0  0  0  0  0  0  0  0
   -8.6560   -4.2880   -0.4660 C   0  0  0  0  0  0  0  0  0  0  0  0
   -8.9300   -2.1750   -1.6000 C   0  0  0  0  0  0  0  0  0  0  0  0
   -9.2950   -3.5100   -1.4300 C   0  0  0  0  0  0  0  0  0  0  0  0
    0.7440   -1.8840    0.8580 H   0  0  0  0  0  0  0  0  0  0  0  0
    1.5010    2.3120    0.7470 H   0  0  0  0  0  0  0  0  0  0  0  0
   -0.7860   -1.8870   -1.3240 H   0  0  0  0  0  0  0  0  0  0  0  0
   -1.0850   -0.3270   -2.1270 H   0  0  0  0  0  0  0  0  0  0  0  0
   -6.4100   -0.7450    1.1860 H   0  0  0  0  0  0  0  0  0  0  0  0
   -6.1470   -2.3260    1.9600 H   0  0  0  0  0  0  0  0  0  0  0  0
   -1.6910   -1.3430    1.4020 H   0  0  0  0  0  0  0  0  0  0  0  0
   -2.2910   -2.6490    0.3510 H   0  0  0  0  0  0  0  0  0  0  0  0
   -3.2470   -2.1540   -1.7960 H   0  0  0  0  0  0  0  0  0  0  0  0
   -3.3760   -0.4600   -2.3280 H   0  0  0  0  0  0  0  0  0  0  0  0
   -3.8440   -2.2100    2.1810 H   0  0  0  0  0  0  0  0  0  0  0  0
   -3.9710   -0.5070    1.6800 H   0  0  0  0  0  0  0  0  0  0  0  0
   -4.9820    0.0060   -0.5180 H   0  0  0  0  0  0  0  0  0  0  0  0
   -5.5570   -1.3440   -1.5250 H   0  0  0  0  0  0  0  0  0  0  0  0
   -7.6330   -0.5880   -0.9480 H   0  0  0  0  0  0  0  0  0  0  0  0
   -7.1470   -4.3380    1.0650 H   0  0  0  0  0  0  0  0  0  0  0  0
   -8.9360   -5.3230   -0.3360 H   0  0  0  0  0  0  0  0  0  0  0  0
   -9.4230   -1.5720   -2.3490 H   0  0  0  0  0  0  0  0  0  0  0  0
  -10.0720   -3.9410   -2.0440 H   0  0  0  0  0  0  0  0  0  0  0  0
  1  2  1  0  0  0  0
  1  4  2  0  0  0  0
  1  6  1  0  0  0  0
  2 10  1  0  0  0  0
  2 11  2  0  0  0  0
  3  4  1  0  0  0  0
  3  5  1  0  0  0  0
  3  8  1  0  0  0  0
  4 23  1  0  0  0  0
  5  6  2  0  0  0  0
  6 24  1  0  0  0  0
  7  8  1  0  0  0  0
  7 13  1  0  0  0  0
  7 14  1  0  0  0  0
  8 25  1  0  0  0  0
  8 26  1  0  0  0  0
  9 12  1  0  0  0  0
  9 15  1  0  0  0  0
  9 16  1  0  0  0  0
 12 17  1  0  0  0  0
 12 27  1  0  0  0  0
 12 28  1  0  0  0  0
 13 15  1  0  0  0  0
 13 29  1  0  0  0  0
 13 30  1  0  0  0  0
 14 16  1  0  0  0  0
 14 31  1  0  0  0  0
 14 32  1  0  0  0  0
 15 33  1  0  0  0  0
 15 34  1  0  0  0  0
 16 35  1  0  0  0  0
 16 36  1  0  0  0  0
 17 18  1  0  0  0  0
 17 19  2  0  0  0  0
 18 21  2  0  0  0  0
 18 37  1  0  0  0  0
 19 20  1  0  0  0  0
 19 38  1  0  0  0  0
 20 22  2  0  0  0  0
 20 39  1  0  0  0  0
 21 22  1  0  0  0  0
 21 40  1  0  0  0  0
 22 41  1  0  0  0  0
M  CHG  1   2   1
M  CHG  1  10  -1
M  END
>  <$CLUSTER>
780

>  <INDEX>
509632

$$$$
Chem T&I AMSACS-00431
  MOE2020           3D

 39 40  0  0  1  0  0  0  0  0999 V2000
    1.0100   -0.6870   -1.2800 S   0  0  0  0  0  0  0  0  0  0  0  0
    0.0750    0.2030   -0.0780 C   0  0  0  0  0  0  0  0  0  0  0  0
    1.9270   -1.7130   -0.2760 N   0  0  0  0  0  0  0  0  0  0  0  0
   -0.9070   -0.4610    0.6550 C   0  0  0  0  0  0  0  0  0  0  0  0
    1.9130    0.2430   -1.9290 O   0  0  0  0  0  0  0  0  0  0  0  0
    0.0720   -1.4770   -2.0530 O   0  0  0  0  0  0  0  0  0  0  0  0
    0.2990    1.5650    0.1190 C   0  0  0  0  0  0  0  0  0  0  0  0
    1.9730   -4.1100    0.1370 C   0  0  0  0  0  0  0  0  0  0  0  0
   -1.6680    0.2270    1.5960 C   0  0  0  0  0  0  0  0  0  0  0  0
    1.1840   -5.1640   -0.3950 C   0  0  0  0  0  0  0  0  0  0  0  0
    1.7620   -6.3940   -0.7170 C   0  0  0  0  0  0  0  0  0  0  0  0
    1.2820   -2.7990    0.4940 C   0  0  3  0  0  0  0  0  0  0  0  0
    3.1230   -6.6030   -0.5080 C   0  0  0  0  0  0  0  0  0  0  0  0
    3.3320   -4.3510    0.3460 C   0  0  0  0  0  0  0  0  0  0  0  0
    3.9080   -5.5820    0.0230 C   0  0  0  0  0  0  0  0  0  0  0  0
   -1.4450    1.5880    1.8000 C   0  0  0  0  0  0  0  0  0  0  0  0
   -1.1310   -1.7700    0.4740 F   0  0  0  0  0  0  0  0  0  0  0  0
   -0.4640    2.2550    1.0630 C   0  0  0  0  0  0  0  0  0  0  0  0
   -2.2080    2.1850    2.7170 F   0  0  0  0  0  0  0  0  0  0  0  0
    0.9220   -7.4900   -1.2870 C   0  0  0  0  0  0  0  0  0  0  0  0
    1.4110   -2.4980    1.9820 C   0  0  0  0  0  0  0  0  0  0  0  0
    3.7340   -7.9200   -0.8540 C   0  0  0  0  0  0  0  0  0  0  0  0
    2.3890   -1.1180    0.3970 H   0  0  0  0  0  0  0  0  0  0  0  0
    1.0560    2.0810   -0.4530 H   0  0  0  0  0  0  0  0  0  0  0  0
   -2.4270   -0.2900    2.1650 H   0  0  0  0  0  0  0  0  0  0  0  0
    0.1260   -5.0130   -0.5520 H   0  0  0  0  0  0  0  0  0  0  0  0
    0.2220   -2.8770    0.2520 H   0  0  0  0  0  0  0  0  0  0  0  0
    3.9500   -3.5710    0.7650 H   0  0  0  0  0  0  0  0  0  0  0  0
    4.9640   -5.7420    0.1850 H   0  0  0  0  0  0  0  0  0  0  0  0
   -0.2950    3.3090    1.2240 H   0  0  0  0  0  0  0  0  0  0  0  0
   -0.1090   -7.1470   -1.3790 H   0  0  0  0  0  0  0  0  0  0  0  0
    0.9590   -8.3570   -0.6270 H   0  0  0  0  0  0  0  0  0  0  0  0
    1.3020   -7.7650   -2.2710 H   0  0  0  0  0  0  0  0  0  0  0  0
    2.4650   -2.4160    2.2460 H   0  0  0  0  0  0  0  0  0  0  0  0
    0.9540   -3.3040    2.5570 H   0  0  0  0  0  0  0  0  0  0  0  0
    0.9060   -1.5590    2.2080 H   0  0  0  0  0  0  0  0  0  0  0  0
    2.9660   -8.5830   -1.2530 H   0  0  0  0  0  0  0  0  0  0  0  0
    4.1690   -8.3650    0.0410 H   0  0  0  0  0  0  0  0  0  0  0  0
    4.5130   -7.7740   -1.6030 H   0  0  0  0  0  0  0  0  0  0  0  0
  1  2  1  0  0  0  0
  1  3  1  0  0  0  0
  1  5  2  0  0  0  0
  1  6  2  0  0  0  0
  2  4  2  0  0  0  0
  2  7  1  0  0  0  0
  3 12  1  0  0  0  0
  3 23  1  0  0  0  0
  4  9  1  0  0  0  0
  4 17  1  0  0  0  0
  7 18  2  0  0  0  0
  7 24  1  0  0  0  0
  8 10  1  0  0  0  0
  8 12  1  0  0  0  0
  8 14  2  0  0  0  0
  9 16  2  0  0  0  0
  9 25  1  0  0  0  0
 10 11  2  0  0  0  0
 10 26  1  0  0  0  0
 11 13  1  0  0  0  0
 11 20  1  0  0  0  0
 12 21  1  0  0  0  0
 12 27  1  0  0  0  0
 13 15  2  0  0  0  0
 13 22  1  0  0  0  0
 14 15  1  0  0  0  0
 14 28  1  0  0  0  0
 15 29  1  0  0  0  0
 16 18  1  0  0  0  0
 16 19  1  0  0  0  0
 18 30  1  0  0  0  0
 20 31  1  0  0  0  0
 20 32  1  0  0  0  0
 20 33  1  0  0  0  0
 21 34  1  0  0  0  0
 21 35  1  0  0  0  0
 21 36  1  0  0  0  0
 22 37  1  0  0  0  0
 22 38  1  0  0  0  0
 22 39  1  0  0  0  0
M  END
>  <$CLUSTER>
781

>  <INDEX>
512628

$$$$
Chem T&I AMSACS-00849
  MOE2020           3D

 47 49  0  0  1  0  0  0  0  0999 V2000
    1.2140   -0.2780    0.3700 S   0  0  0  0  0  0  0  0  0  0  0  0
   -0.4800   -0.3460    0.4320 N   0  0  0  0  0  0  0  0  0  0  0  0
    1.4900    1.4680    0.5620 C   0  0  0  0  0  0  0  0  0  0  0  0
   -2.2310   -0.8790   -1.1720 C   0  0  0  0  0  0  0  0  0  0  0  0
    1.6700   -0.6600   -0.9520 O   0  0  0  0  0  0  0  0  0  0  0  0
    1.7400   -0.9290    1.5540 O   0  0  0  0  0  0  0  0  0  0  0  0
   -2.1610   -1.2360   -2.5450 C   0  0  0  0  0  0  0  0  0  0  0  0
    1.6450    2.0010    1.8340 C   0  0  0  0  0  0  0  0  0  0  0  0
   -3.0040   -2.2180   -3.0700 C   0  0  0  0  0  0  0  0  0  0  0  0
   -1.3040    0.2190   -0.6630 C   0  0  3  0  0  0  0  0  0  0  0  0
    1.8810    3.3690    1.9710 C   0  0  0  0  0  0  0  0  0  0  0  0
   -3.9340   -2.8520   -2.2490 C   0  0  0  0  0  0  0  0  0  0  0  0
    1.5660    2.2650   -0.5790 C   0  0  0  0  0  0  0  0  0  0  0  0
   -3.1800   -1.5240   -0.3760 C   0  0  0  0  0  0  0  0  0  0  0  0
   -4.0220   -2.5050   -0.9020 C   0  0  0  0  0  0  0  0  0  0  0  0
    1.9590    4.1830    0.8410 C   0  0  0  0  0  0  0  0  0  0  0  0
    1.8020    3.6320   -0.4320 C   0  0  0  0  0  0  0  0  0  0  0  0
   -2.9830   -2.6170   -4.3890 O   0  0  0  0  0  0  0  0  0  0  0  0
   -4.7240   -3.8020   -2.8560 O   0  0  0  0  0  0  0  0  0  0  0  0
    2.0430    3.9480    3.2580 C   0  0  0  0  0  0  0  0  0  0  0  0
   -2.0990    1.4050   -0.1310 C   0  0  0  0  0  0  0  0  0  0  0  0
    2.2010    5.5770    1.0000 C   0  0  0  0  0  0  0  0  0  0  0  0
   -2.0440   -1.9910   -5.2550 C   0  0  0  0  0  0  0  0  0  0  0  0
   -5.6860   -4.4690   -2.0480 C   0  0  0  0  0  0  0  0  0  0  0  0
    2.2790    5.3160    3.3990 C   0  0  0  0  0  0  0  0  0  0  0  0
    2.3580    6.1290    2.2720 C   0  0  0  0  0  0  0  0  0  0  0  0
   -0.7570    0.1330    1.2770 H   0  0  0  0  0  0  0  0  0  0  0  0
   -1.4480   -0.7430   -3.1900 H   0  0  0  0  0  0  0  0  0  0  0  0
    1.5840    1.3660    2.7050 H   0  0  0  0  0  0  0  0  0  0  0  0
   -0.6790    0.5710   -1.4840 H   0  0  0  0  0  0  0  0  0  0  0  0
    1.4440    1.8310   -1.5610 H   0  0  0  0  0  0  0  0  0  0  0  0
   -3.2640   -1.2580    0.6670 H   0  0  0  0  0  0  0  0  0  0  0  0
   -4.7430   -2.9960   -0.2650 H   0  0  0  0  0  0  0  0  0  0  0  0
    1.8630    4.2650   -1.3050 H   0  0  0  0  0  0  0  0  0  0  0  0
    1.9830    3.3230    4.1370 H   0  0  0  0  0  0  0  0  0  0  0  0
   -2.7330    1.0770    0.6930 H   0  0  0  0  0  0  0  0  0  0  0  0
   -2.7210    1.8130   -0.9280 H   0  0  0  0  0  0  0  0  0  0  0  0
   -1.4120    2.1740    0.2230 H   0  0  0  0  0  0  0  0  0  0  0  0
    2.2640    6.2120    0.1290 H   0  0  0  0  0  0  0  0  0  0  0  0
   -2.1430   -2.4050   -6.2580 H   0  0  0  0  0  0  0  0  0  0  0  0
   -1.0340   -2.1700   -4.8860 H   0  0  0  0  0  0  0  0  0  0  0  0
   -2.2350   -0.9180   -5.2840 H   0  0  0  0  0  0  0  0  0  0  0  0
   -6.2350   -5.1880   -2.6560 H   0  0  0  0  0  0  0  0  0  0  0  0
   -6.3810   -3.7390   -1.6330 H   0  0  0  0  0  0  0  0  0  0  0  0
   -5.1790   -4.9910   -1.2360 H   0  0  0  0  0  0  0  0  0  0  0  0
    2.4000    5.7440    4.3830 H   0  0  0  0  0  0  0  0  0  0  0  0
    2.5410    7.1880    2.3820 H   0  0  0  0  0  0  0  0  0  0  0  0
  1  2  1  0  0  0  0
  1  3  1  0  0  0  0
  1  5  2  0  0  0  0
  1  6  2  0  0  0  0
  2 10  1  0  0  0  0
  2 27  1  0  0  0  0
  3  8  2  0  0  0  0
  3 13  1  0  0  0  0
  4  7  1  0  0  0  0
  4 10  1  0  0  0  0
  4 14  2  0  0  0  0
  7  9  2  0  0  0  0
  7 28  1  0  0  0  0
  8 11  1  0  0  0  0
  8 29  1  0  0  0  0
  9 12  1  0  0  0  0
  9 18  1  0  0  0  0
 10 21  1  0  0  0  0
 10 30  1  0  0  0  0
 11 16  2  0  0  0  0
 11 20  1  0  0  0  0
 12 15  2  0  0  0  0
 12 19  1  0  0  0  0
 13 17  2  0  0  0  0
 13 31  1  0  0  0  0
 14 15  1  0  0  0  0
 14 32  1  0  0  0  0
 15 33  1  0  0  0  0
 16 17  1  0  0  0  0
 16 22  1  0  0  0  0
 17 34  1  0  0  0  0
 18 23  1  0  0  0  0
 19 24  1  0  0  0  0
 20 25  2  0  0  0  0
 20 35  1  0  0  0  0
 21 36  1  0  0  0  0
 21 37  1  0  0  0  0
 21 38  1  0  0  0  0
 22 26  2  0  0  0  0
 22 39  1  0  0  0  0
 23 40  1  0  0  0  0
 23 41  1  0  0  0  0
 23 42  1  0  0  0  0
 24 43  1  0  0  0  0
 24 44  1  0  0  0  0
 24 45  1  0  0  0  0
 25 26  1  0  0  0  0
 25 46  1  0  0  0  0
 26 47  1  0  0  0  0
M  END
>  <$CLUSTER>
782

>  <INDEX>
512805

$$$$
Chem T&I AMSACS-01301
  MOE2020           3D

 29 31  0  0  0  0  0  0  0  0999 V2000
    1.2550   -0.9580    0.9350 S   0  0  0  0  0  0  0  0  0  0  0  0
   -0.7590    0.1740   -0.3120 C   0  0  0  0  0  0  0  0  0  0  0  0
   -0.3710   -0.8840    0.4520 N   0  0  0  0  0  0  0  0  0  0  0  0
    0.0560    1.1300   -0.6900 N   0  0  0  0  0  0  0  0  0  0  0  0
   -2.3820    0.2880   -0.8190 S   0  0  0  0  0  0  0  0  0  0  0  0
   -1.9950    1.7520   -1.6290 C   0  0  0  0  0  0  0  0  0  0  0  0
    1.2190   -2.4690    1.8690 C   0  0  0  0  0  0  0  0  0  0  0  0
   -0.6570    2.0380   -1.4480 C   0  0  0  0  0  0  0  0  0  0  0  0
    1.5010   -3.6790    1.2320 C   0  0  0  0  0  0  0  0  0  0  0  0
    1.5020   -4.8600    1.9760 C   0  0  0  0  0  0  0  0  0  0  0  0
    2.0970   -1.1880   -0.2240 O   0  0  0  0  0  0  0  0  0  0  0  0
    1.5360    0.1170    1.8660 O   0  0  0  0  0  0  0  0  0  0  0  0
   -2.8480    2.5940   -2.3830 C   0  0  0  0  0  0  0  0  0  0  0  0
    1.2340   -4.8260    3.3450 C   0  0  0  0  0  0  0  0  0  0  0  0
    0.9630   -2.4250    3.2410 C   0  0  0  0  0  0  0  0  0  0  0  0
   -0.1220    3.2170   -2.0400 C   0  0  0  0  0  0  0  0  0  0  0  0
    0.9650   -3.6110    3.9760 C   0  0  0  0  0  0  0  0  0  0  0  0
   -2.3010    3.7450   -2.9550 C   0  0  0  0  0  0  0  0  0  0  0  0
    1.7490   -6.0610    1.4500 F   0  0  0  0  0  0  0  0  0  0  0  0
    1.2530   -5.9970    3.9820 F   0  0  0  0  0  0  0  0  0  0  0  0
   -0.9560    4.0550   -2.7870 C   0  0  0  0  0  0  0  0  0  0  0  0
   -3.3670    4.8900   -3.9550 Br  0  0  0  0  0  0  0  0  0  0  0  0
   -1.0290   -1.6010    0.7230 H   0  0  0  0  0  0  0  0  0  0  0  0
    1.7160   -3.7010    0.1740 H   0  0  0  0  0  0  0  0  0  0  0  0
   -3.8930    2.3530   -2.5120 H   0  0  0  0  0  0  0  0  0  0  0  0
    0.7650   -1.4820    3.7290 H   0  0  0  0  0  0  0  0  0  0  0  0
    0.9220    3.4630   -1.9130 H   0  0  0  0  0  0  0  0  0  0  0  0
    0.7580   -3.5880    5.0360 H   0  0  0  0  0  0  0  0  0  0  0  0
   -0.5520    4.9500   -3.2370 H   0  0  0  0  0  0  0  0  0  0  0  0
  1  3  1  0  0  0  0
  1  7  1  0  0  0  0
  1 11  2  0  0  0  0
  1 12  2  0  0  0  0
  2  3  1  0  0  0  0
  2  4  2  0  0  0  0
  2  5  1  0  0  0  0
  3 23  1  0  0  0  0
  4  8  1  0  0  0  0
  5  6  1  0  0  0  0
  6  8  2  0  0  0  0
  6 13  1  0  0  0  0
  7  9  1  0  0  0  0
  7 15  2  0  0  0  0
  8 16  1  0  0  0  0
  9 10  2  0  0  0  0
  9 24  1  0  0  0  0
 10 14  1  0  0  0  0
 10 19  1  0  0  0  0
 13 18  2  0  0  0  0
 13 25  1  0  0  0  0
 14 17  2  0  0  0  0
 14 20  1  0  0  0  0
 15 17  1  0  0  0  0
 15 26  1  0  0  0  0
 16 21  2  0  0  0  0
 16 27  1  0  0  0  0
 17 28  1  0  0  0  0
 18 21  1  0  0  0  0
 18 22  1  0  0  0  0
 21 29  1  0  0  0  0
M  END
>  <$CLUSTER>
783

>  <INDEX>
513006

$$$$
Chem T&I AMSACS-05075
  MOE2020           3D

 36 37  0  0  0  0  0  0  0  0999 V2000
   -0.1030   -0.2500    0.5580 C   0  0  0  0  0  0  0  0  0  0  0  0
   -0.1270    0.2830   -2.1400 S   0  0  0  0  0  0  0  0  0  0  0  0
    0.7370    0.7400    1.0340 C   0  0  0  0  0  0  0  0  0  0  0  0
    0.0780   -0.4920    2.8320 N   0  0  0  0  0  0  0  0  0  0  0  0
   -0.5530   -0.5640   -0.7360 N   0  0  0  0  0  0  0  0  0  0  0  0
    0.8030    0.5410    2.3870 N   0  0  0  0  0  0  0  0  0  0  0  0
   -0.4800   -0.9840    1.7220 C   0  0  0  0  0  0  0  0  0  0  0  0
   -1.0420   -0.6520   -3.3420 C   0  0  0  0  0  0  0  0  0  0  0  0
   -2.3430   -0.2650   -3.6740 C   0  0  0  0  0  0  0  0  0  0  0  0
   -3.0470   -0.9840   -4.6390 C   0  0  0  0  0  0  0  0  0  0  0  0
    1.2800    0.0800   -2.4220 O   0  0  0  0  0  0  0  0  0  0  0  0
   -0.7060    1.6110   -2.1010 O   0  0  0  0  0  0  0  0  0  0  0  0
   -2.4510   -2.0750   -5.2740 C   0  0  0  0  0  0  0  0  0  0  0  0
   -0.4350   -1.7360   -3.9810 C   0  0  0  0  0  0  0  0  0  0  0  0
   -1.1480   -2.4490   -4.9450 C   0  0  0  0  0  0  0  0  0  0  0  0
   -4.2950   -0.6920   -5.0100 F   0  0  0  0  0  0  0  0  0  0  0  0
    1.5470    1.3000    3.4010 C   0  0  0  0  0  0  0  0  0  0  0  0
    1.4890    1.8480    0.4000 C   0  0  0  0  0  0  0  0  0  0  0  0
   -3.1920   -2.7090   -6.1830 F   0  0  0  0  0  0  0  0  0  0  0  0
   -1.3750   -2.1630    1.8080 C   0  0  0  0  0  0  0  0  0  0  0  0
    2.9190    0.7070    3.6690 C   0  0  0  0  0  0  0  0  0  0  0  0
   -1.1760   -1.3530   -0.8360 H   0  0  0  0  0  0  0  0  0  0  0  0
   -2.7990    0.5840   -3.1870 H   0  0  0  0  0  0  0  0  0  0  0  0
    0.5770   -2.0190   -3.7310 H   0  0  0  0  0  0  0  0  0  0  0  0
   -0.6900   -3.2930   -5.4380 H   0  0  0  0  0  0  0  0  0  0  0  0
    0.9760    1.2980    4.3300 H   0  0  0  0  0  0  0  0  0  0  0  0
    1.6700    2.3250    3.0520 H   0  0  0  0  0  0  0  0  0  0  0  0
    1.3090    1.8410   -0.6750 H   0  0  0  0  0  0  0  0  0  0  0  0
    2.5540    1.7200    0.5910 H   0  0  0  0  0  0  0  0  0  0  0  0
    1.1570    2.7980    0.8180 H   0  0  0  0  0  0  0  0  0  0  0  0
   -1.7340   -2.4200    0.8110 H   0  0  0  0  0  0  0  0  0  0  0  0
   -2.2240   -1.9290    2.4500 H   0  0  0  0  0  0  0  0  0  0  0  0
   -0.8250   -3.0070    2.2250 H   0  0  0  0  0  0  0  0  0  0  0  0
    2.8090   -0.3190    4.0190 H   0  0  0  0  0  0  0  0  0  0  0  0
    3.4280    1.2980    4.4300 H   0  0  0  0  0  0  0  0  0  0  0  0
    3.5050    0.7170    2.7500 H   0  0  0  0  0  0  0  0  0  0  0  0
  1  3  2  0  0  0  0
  1  5  1  0  0  0  0
  1  7  1  0  0  0  0
  2  5  1  0  0  0  0
  2  8  1  0  0  0  0
  2 11  2  0  0  0  0
  2 12  2  0  0  0  0
  3  6  1  0  0  0  0
  3 18  1  0  0  0  0
  4  6  1  0  0  0  0
  4  7  2  0  0  0  0
  5 22  1  0  0  0  0
  6 17  1  0  0  0  0
  7 20  1  0  0  0  0
  8  9  1  0  0  0  0
  8 14  2  0  0  0  0
  9 10  2  0  0  0  0
  9 23  1  0  0  0  0
 10 13  1  0  0  0  0
 10 16  1  0  0  0  0
 13 15  2  0  0  0  0
 13 19  1  0  0  0  0
 14 15  1  0  0  0  0
 14 24  1  0  0  0  0
 15 25  1  0  0  0  0
 17 21  1  0  0  0  0
 17 26  1  0  0  0  0
 17 27  1  0  0  0  0
 18 28  1  0  0  0  0
 18 29  1  0  0  0  0
 18 30  1  0  0  0  0
 20 31  1  0  0  0  0
 20 32  1  0  0  0  0
 20 33  1  0  0  0  0
 21 34  1  0  0  0  0
 21 35  1  0  0  0  0
 21 36  1  0  0  0  0
M  END
>  <$CLUSTER>
784

>  <INDEX>
514557

$$$$
Chem T&I AMSACS-06153
  MOE2020           3D

 43 46  0  0  0  0  0  0  0  0999 V2000
    1.5830    1.5040   -0.1400 S   0  0  0  0  0  0  0  0  0  0  0  0
    0.2990    2.6940    0.1780 C   0  0  0  0  0  0  0  0  0  0  0  0
    1.0620    0.2120    0.8600 N   0  0  0  0  0  0  0  0  0  0  0  0
   -3.6310   -4.0620   -0.1180 N   0  0  0  0  0  0  0  0  0  0  0  0
   -4.1670   -4.1410    1.1130 N   0  0  0  0  0  0  0  0  0  0  0  0
    1.5160    1.1400   -1.5410 O   0  0  0  0  0  0  0  0  0  0  0  0
    2.8060    2.0420    0.4260 O   0  0  0  0  0  0  0  0  0  0  0  0
    0.4380    3.5990    1.2230 C   0  0  0  0  0  0  0  0  0  0  0  0
   -3.4780   -6.1850    0.3630 C   0  0  0  0  0  0  0  0  0  0  0  0
   -3.2060   -5.2590   -0.6150 C   0  0  0  0  0  0  0  0  0  0  0  0
   -0.5670    4.5410    1.4450 C   0  0  0  0  0  0  0  0  0  0  0  0
   -4.0680   -5.4410    1.4020 C   0  0  0  0  0  0  0  0  0  0  0  0
   -0.8200    2.7120   -0.6550 C   0  0  0  0  0  0  0  0  0  0  0  0
   -3.5620   -2.7720   -0.7950 C   0  0  0  0  0  0  0  0  0  0  0  0
   -1.6940    4.5700    0.6230 C   0  0  0  0  0  0  0  0  0  0  0  0
   -1.8190    3.6570   -0.4250 C   0  0  0  0  0  0  0  0  0  0  0  0
   -0.0820   -0.5500    0.4390 C   0  0  0  0  0  0  0  0  0  0  0  0
   -2.3400   -1.9790   -0.3670 C   0  0  0  0  0  0  0  0  0  0  0  0
   -1.2700   -0.4500    1.1690 C   0  0  0  0  0  0  0  0  0  0  0  0
   -0.0240   -1.3660   -0.6940 C   0  0  0  0  0  0  0  0  0  0  0  0
   -2.3980   -1.1660    0.7640 C   0  0  0  0  0  0  0  0  0  0  0  0
   -1.1540   -2.0800   -1.0940 C   0  0  0  0  0  0  0  0  0  0  0  0
   -0.4560    5.4780    2.5070 C   0  0  0  0  0  0  0  0  0  0  0  0
   -2.7090    5.5380    0.8630 C   0  0  0  0  0  0  0  0  0  0  0  0
   -1.4590    6.4220    2.7310 C   0  0  0  0  0  0  0  0  0  0  0  0
   -2.5830    6.4520    1.9110 C   0  0  0  0  0  0  0  0  0  0  0  0
    1.5450   -0.0070    1.7200 H   0  0  0  0  0  0  0  0  0  0  0  0
    1.3130    3.5740    1.8560 H   0  0  0  0  0  0  0  0  0  0  0  0
   -3.2830   -7.2470    0.3400 H   0  0  0  0  0  0  0  0  0  0  0  0
   -2.7500   -5.4410   -1.5770 H   0  0  0  0  0  0  0  0  0  0  0  0
   -4.4040   -5.8750    2.3320 H   0  0  0  0  0  0  0  0  0  0  0  0
   -0.9110    2.0040   -1.4660 H   0  0  0  0  0  0  0  0  0  0  0  0
   -4.4570   -2.1990   -0.5550 H   0  0  0  0  0  0  0  0  0  0  0  0
   -3.5160   -2.9400   -1.8710 H   0  0  0  0  0  0  0  0  0  0  0  0
   -2.6920    3.6830   -1.0600 H   0  0  0  0  0  0  0  0  0  0  0  0
   -1.3150    0.1800    2.0450 H   0  0  0  0  0  0  0  0  0  0  0  0
    0.8930   -1.4440   -1.2590 H   0  0  0  0  0  0  0  0  0  0  0  0
   -3.3160   -1.0900    1.3270 H   0  0  0  0  0  0  0  0  0  0  0  0
   -1.1100   -2.7120   -1.9680 H   0  0  0  0  0  0  0  0  0  0  0  0
    0.4130    5.4600    3.1470 H   0  0  0  0  0  0  0  0  0  0  0  0
   -3.5830    5.5660    0.2300 H   0  0  0  0  0  0  0  0  0  0  0  0
   -1.3630    7.1300    3.5410 H   0  0  0  0  0  0  0  0  0  0  0  0
   -3.3590    7.1830    2.0850 H   0  0  0  0  0  0  0  0  0  0  0  0
  1  2  1  0  0  0  0
  1  3  1  0  0  0  0
  1  6  2  0  0  0  0
  1  7  2  0  0  0  0
  2  8  2  0  0  0  0
  2 13  1  0  0  0  0
  3 17  1  0  0  0  0
  3 27  1  0  0  0  0
  4  5  1  0  0  0  0
  4 10  1  0  0  0  0
  4 14  1  0  0  0  0
  5 12  2  0  0  0  0
  8 11  1  0  0  0  0
  8 28  1  0  0  0  0
  9 10  2  0  0  0  0
  9 12  1  0  0  0  0
  9 29  1  0  0  0  0
 10 30  1  0  0  0  0
 11 15  2  0  0  0  0
 11 23  1  0  0  0  0
 12 31  1  0  0  0  0
 13 16  2  0  0  0  0
 13 32  1  0  0  0  0
 14 18  1  0  0  0  0
 14 33  1  0  0  0  0
 14 34  1  0  0  0  0
 15 16  1  0  0  0  0
 15 24  1  0  0  0  0
 16 35  1  0  0  0  0
 17 19  2  0  0  0  0
 17 20  1  0  0  0  0
 18 21  2  0  0  0  0
 18 22  1  0  0  0  0
 19 21  1  0  0  0  0
 19 36  1  0  0  0  0
 20 22  2  0  0  0  0
 20 37  1  0  0  0  0
 21 38  1  0  0  0  0
 22 39  1  0  0  0  0
 23 25  2  0  0  0  0
 23 40  1  0  0  0  0
 24 26  2  0  0  0  0
 24 41  1  0  0  0  0
 25 26  1  0  0  0  0
 25 42  1  0  0  0  0
 26 43  1  0  0  0  0
M  END
>  <$CLUSTER>
785

>  <INDEX>
515117

$$$$
Chem T&I AMSACS-08237
  MOE2020           3D

 37 39  0  0  0  0  0  0  0  0999 V2000
    1.8140   -0.5940   -0.0320 S   0  0  0  0  0  0  0  0  0  0  0  0
   -0.7120    0.3940   -0.2150 C   0  0  0  0  0  0  0  0  0  0  0  0
   -2.5360    0.2360    0.9840 N   0  0  0  0  0  0  0  0  0  0  0  0
    0.5810    0.3290   -0.7510 N   0  0  0  0  0  0  0  0  0  0  0  0
   -2.9270    0.9550   -0.0810 N   0  0  0  0  0  0  0  0  0  0  0  0
   -1.2200   -0.1250    0.9530 C   0  0  0  0  0  0  0  0  0  0  0  0
    3.1610   -0.1970   -1.1200 C   0  0  0  0  0  0  0  0  0  0  0  0
   -1.8120    1.0490   -0.8090 C   0  0  0  0  0  0  0  0  0  0  0  0
   -4.3240   -1.3080    1.6880 C   0  0  0  0  0  0  0  0  0  0  0  0
    3.9920    0.8820   -0.8200 C   0  0  0  0  0  0  0  0  0  0  0  0
   -3.8600   -2.6190    1.8750 C   0  0  0  0  0  0  0  0  0  0  0  0
    5.0670    1.1700   -1.6610 C   0  0  0  0  0  0  0  0  0  0  0  0
    1.5180   -2.0030   -0.1990 O   0  0  0  0  0  0  0  0  0  0  0  0
    2.1330   -0.0440    1.2710 O   0  0  0  0  0  0  0  0  0  0  0  0
   -3.4910   -0.0840    2.0270 C   0  0  0  0  0  0  0  0  0  0  0  0
   -4.6610   -3.7120    1.5250 C   0  0  0  0  0  0  0  0  0  0  0  0
    5.3110    0.3780   -2.7830 C   0  0  0  0  0  0  0  0  0  0  0  0
    3.4030   -1.0030   -2.2340 C   0  0  0  0  0  0  0  0  0  0  0  0
   -5.5960   -1.1190    1.1260 C   0  0  0  0  0  0  0  0  0  0  0  0
    4.4800   -0.7060   -3.0690 C   0  0  0  0  0  0  0  0  0  0  0  0
   -5.9260   -3.5060    0.9790 C   0  0  0  0  0  0  0  0  0  0  0  0
   -2.2960   -2.9510    2.5340 Cl  0  0  0  0  0  0  0  0  0  0  0  0
    5.9070    2.1870   -1.4580 F   0  0  0  0  0  0  0  0  0  0  0  0
    6.3570    0.7220   -3.5360 F   0  0  0  0  0  0  0  0  0  0  0  0
   -6.3930   -2.2100    0.7780 C   0  0  0  0  0  0  0  0  0  0  0  0
   -6.6280   -4.5990    0.6750 F   0  0  0  0  0  0  0  0  0  0  0  0
    0.7870    0.8480   -1.5930 H   0  0  0  0  0  0  0  0  0  0  0  0
   -0.6860   -0.7010    1.6950 H   0  0  0  0  0  0  0  0  0  0  0  0
   -1.7570    1.5710   -1.7530 H   0  0  0  0  0  0  0  0  0  0  0  0
    3.8050    1.4880    0.0540 H   0  0  0  0  0  0  0  0  0  0  0  0
   -4.1580    0.7670    2.1650 H   0  0  0  0  0  0  0  0  0  0  0  0
   -2.9480   -0.2740    2.9530 H   0  0  0  0  0  0  0  0  0  0  0  0
   -4.2980   -4.7170    1.6790 H   0  0  0  0  0  0  0  0  0  0  0  0
    2.7640   -1.8470   -2.4470 H   0  0  0  0  0  0  0  0  0  0  0  0
   -5.9620   -0.1170    0.9610 H   0  0  0  0  0  0  0  0  0  0  0  0
    4.6710   -1.3170   -3.9390 H   0  0  0  0  0  0  0  0  0  0  0  0
   -7.3730   -2.0490    0.3530 H   0  0  0  0  0  0  0  0  0  0  0  0
  1  4  1  0  0  0  0
  1  7  1  0  0  0  0
  1 13  2  0  0  0  0
  1 14  2  0  0  0  0
  2  4  1  0  0  0  0
  2  6  2  0  0  0  0
  2  8  1  0  0  0  0
  3  5  1  0  0  0  0
  3  6  1  0  0  0  0
  3 15  1  0  0  0  0
  4 27  1  0  0  0  0
  5  8  2  0  0  0  0
  6 28  1  0  0  0  0
  7 10  1  0  0  0  0
  7 18  2  0  0  0  0
  8 29  1  0  0  0  0
  9 11  2  0  0  0  0
  9 15  1  0  0  0  0
  9 19  1  0  0  0  0
 10 12  2  0  0  0  0
 10 30  1  0  0  0  0
 11 16  1  0  0  0  0
 11 22  1  0  0  0  0
 12 17  1  0  0  0  0
 12 23  1  0  0  0  0
 15 31  1  0  0  0  0
 15 32  1  0  0  0  0
 16 21  2  0  0  0  0
 16 33  1  0  0  0  0
 17 20  2  0  0  0  0
 17 24  1  0  0  0  0
 18 20  1  0  0  0  0
 18 34  1  0  0  0  0
 19 25  2  0  0  0  0
 19 35  1  0  0  0  0
 20 36  1  0  0  0  0
 21 25  1  0  0  0  0
 21 26  1  0  0  0  0
 25 37  1  0  0  0  0
M  END
>  <$CLUSTER>
786

>  <INDEX>
515994

$$$$
Chem T&I AMSACS-08601
  MOE2020           3D

 42 44  0  0  0  0  0  0  0  0999 V2000
   -0.6650   -6.3630   -1.8330 S   0  0  0  0  0  0  0  0  0  0  0  0
   -1.3360    0.2740    0.6000 N   0  0  0  0  0  0  0  0  0  0  0  0
    0.7790    0.6060   -0.1760 C   0  0  0  0  0  0  0  0  0  0  0  0
   -0.1520   -0.2910    0.2860 N   0  0  0  0  0  0  0  0  0  0  0  0
    0.1480    1.8310   -0.1540 C   0  0  0  0  0  0  0  0  0  0  0  0
   -1.1450    1.5660    0.3300 C   0  0  0  0  0  0  0  0  0  0  0  0
    1.0980   -6.6390   -1.7950 C   0  0  0  0  0  0  0  0  0  0  0  0
    1.7290   -6.8070   -0.5640 C   0  0  0  0  0  0  0  0  0  0  0  0
   -1.1340   -6.8290   -3.1330 O   0  0  0  0  0  0  0  0  0  0  0  0
   -1.2190   -6.9500   -0.6160 O   0  0  0  0  0  0  0  0  0  0  0  0
   -0.7390   -4.7140   -1.7630 N   0  0  0  0  0  0  0  0  0  0  0  0
    3.1060   -7.0260   -0.5360 C   0  0  0  0  0  0  0  0  0  0  0  0
    1.8060   -6.6930   -2.9880 C   0  0  0  0  0  0  0  0  0  0  0  0
    3.8320   -7.0780   -1.7260 C   0  0  0  0  0  0  0  0  0  0  0  0
    3.1830   -6.9120   -2.9500 C   0  0  0  0  0  0  0  0  0  0  0  0
    0.7420    3.2580   -0.5830 Cl  0  0  0  0  0  0  0  0  0  0  0  0
    0.0050   -1.7220    0.4610 C   0  0  0  0  0  0  0  0  0  0  0  0
    2.1550    0.2390   -0.5900 C   0  0  0  0  0  0  0  0  0  0  0  0
   -0.4530   -2.5040   -0.7570 C   0  0  0  0  0  0  0  0  0  0  0  0
   -0.2990   -3.9950   -0.5750 C   0  0  0  0  0  0  0  0  0  0  0  0
    3.7830   -7.1970    0.7010 C   0  0  0  0  0  0  0  0  0  0  0  0
    5.2370   -7.3040   -1.6770 C   0  0  0  0  0  0  0  0  0  0  0  0
    5.1600   -7.4180    0.7340 C   0  0  0  0  0  0  0  0  0  0  0  0
    5.8860   -7.4710   -0.4530 C   0  0  0  0  0  0  0  0  0  0  0  0
   -1.9010    2.3250    0.4680 H   0  0  0  0  0  0  0  0  0  0  0  0
    1.1610   -6.7680    0.3540 H   0  0  0  0  0  0  0  0  0  0  0  0
   -1.7060   -4.4630   -1.9090 H   0  0  0  0  0  0  0  0  0  0  0  0
    1.2980   -6.5670   -3.9320 H   0  0  0  0  0  0  0  0  0  0  0  0
    3.7480   -6.9530   -3.8700 H   0  0  0  0  0  0  0  0  0  0  0  0
   -0.5850   -2.0370    1.3220 H   0  0  0  0  0  0  0  0  0  0  0  0
    1.0580   -1.9400    0.6420 H   0  0  0  0  0  0  0  0  0  0  0  0
    2.2970   -0.8350   -0.4680 H   0  0  0  0  0  0  0  0  0  0  0  0
    2.8750    0.7730    0.0290 H   0  0  0  0  0  0  0  0  0  0  0  0
    2.3040    0.5090   -1.6360 H   0  0  0  0  0  0  0  0  0  0  0  0
    0.1410   -2.1930   -1.6160 H   0  0  0  0  0  0  0  0  0  0  0  0
   -1.5040   -2.2810   -0.9420 H   0  0  0  0  0  0  0  0  0  0  0  0
    0.7500   -4.2250   -0.3870 H   0  0  0  0  0  0  0  0  0  0  0  0
   -0.8990   -4.3140    0.2770 H   0  0  0  0  0  0  0  0  0  0  0  0
    3.2260   -7.1550    1.6250 H   0  0  0  0  0  0  0  0  0  0  0  0
    5.8050   -7.3470   -2.5950 H   0  0  0  0  0  0  0  0  0  0  0  0
    5.6630   -7.5480    1.6810 H   0  0  0  0  0  0  0  0  0  0  0  0
    6.9520   -7.6410   -0.4260 H   0  0  0  0  0  0  0  0  0  0  0  0
  1  7  1  0  0  0  0
  1  9  2  0  0  0  0
  1 10  2  0  0  0  0
  1 11  1  0  0  0  0
  2  4  1  0  0  0  0
  2  6  2  0  0  0  0
  3  4  1  0  0  0  0
  3  5  2  0  0  0  0
  3 18  1  0  0  0  0
  4 17  1  0  0  0  0
  5  6  1  0  0  0  0
  5 16  1  0  0  0  0
  6 25  1  0  0  0  0
  7  8  2  0  0  0  0
  7 13  1  0  0  0  0
  8 12  1  0  0  0  0
  8 26  1  0  0  0  0
 11 20  1  0  0  0  0
 11 27  1  0  0  0  0
 12 14  2  0  0  0  0
 12 21  1  0  0  0  0
 13 15  2  0  0  0  0
 13 28  1  0  0  0  0
 14 15  1  0  0  0  0
 14 22  1  0  0  0  0
 15 29  1  0  0  0  0
 17 19  1  0  0  0  0
 17 30  1  0  0  0  0
 17 31  1  0  0  0  0
 18 32  1  0  0  0  0
 18 33  1  0  0  0  0
 18 34  1  0  0  0  0
 19 20  1  0  0  0  0
 19 35  1  0  0  0  0
 19 36  1  0  0  0  0
 20 37  1  0  0  0  0
 20 38  1  0  0  0  0
 21 23  2  0  0  0  0
 21 39  1  0  0  0  0
 22 24  2  0  0  0  0
 22 40  1  0  0  0  0
 23 24  1  0  0  0  0
 23 41  1  0  0  0  0
 24 42  1  0  0  0  0
M  END
>  <$CLUSTER>
787

>  <INDEX>
516253

$$$$
Chem T&I AMSACS-08712
  MOE2020           3D

 40 42  0  0  0  0  0  0  0  0999 V2000
   -0.3670    0.1270    0.2380 C   0  0  0  0  0  0  0  0  0  0  0  0
   -1.1650   -0.7570    1.5370 S   0  0  0  0  0  0  0  0  0  0  0  0
    0.6070   -0.4650   -0.6080 C   0  0  0  0  0  0  0  0  0  0  0  0
    4.1780   -4.4980    4.4020 N   0  0  0  0  0  0  0  0  0  0  0  0
    4.3520   -3.5150    3.4960 N   0  0  0  0  0  0  0  0  0  0  0  0
    1.0620   -1.7280   -0.5670 N   0  0  0  0  0  0  0  0  0  0  0  0
    2.1840   -1.8760   -1.7800 S   0  0  0  0  0  0  0  0  0  0  0  0
    1.2530    0.3500   -1.7060 C   0  0  0  0  0  0  0  0  0  0  0  0
    5.5430   -2.8460    3.6300 C   0  0  0  0  0  0  0  0  0  0  0  0
    6.1690   -3.4310    4.7100 C   0  0  0  0  0  0  0  0  0  0  0  0
    2.1520   -0.3450   -2.4200 N   0  0  0  0  0  0  0  0  0  0  0  0
    5.2860   -4.4360    5.1420 C   0  0  0  0  0  0  0  0  0  0  0  0
   -0.6830    1.4750   -0.0070 C   0  0  0  0  0  0  0  0  0  0  0  0
   -1.9760    0.1810    2.2880 O   0  0  0  0  0  0  0  0  0  0  0  0
   -1.7480   -1.9410    0.9400 O   0  0  0  0  0  0  0  0  0  0  0  0
    0.1680   -1.1970    2.5020 N   0  0  0  0  0  0  0  0  0  0  0  0
   -0.0720    2.2280   -1.0370 C   0  0  0  0  0  0  0  0  0  0  0  0
    0.9000    1.7060   -1.9080 C   0  0  0  0  0  0  0  0  0  0  0  0
    3.3240   -3.3100    2.4750 C   0  0  0  0  0  0  0  0  0  0  0  0
    5.9750   -1.7290    2.7560 C   0  0  0  0  0  0  0  0  0  0  0  0
    2.2490   -2.3480    3.0000 C   0  0  0  0  0  0  0  0  0  0  0  0
    5.5130   -5.3280    6.2600 C   0  0  0  0  0  0  0  0  0  0  0  0
    1.1720   -2.1330    1.9580 C   0  0  0  0  0  0  0  0  0  0  0  0
    7.1290   -3.1730    5.1320 H   0  0  0  0  0  0  0  0  0  0  0  0
   -1.4220    1.9550    0.6170 H   0  0  0  0  0  0  0  0  0  0  0  0
   -0.2020   -1.6170    3.3430 H   0  0  0  0  0  0  0  0  0  0  0  0
   -0.3680    3.2590   -1.1610 H   0  0  0  0  0  0  0  0  0  0  0  0
    1.3510    2.3040   -2.6860 H   0  0  0  0  0  0  0  0  0  0  0  0
    2.8630   -4.2670    2.2290 H   0  0  0  0  0  0  0  0  0  0  0  0
    3.7820   -2.8870    1.5810 H   0  0  0  0  0  0  0  0  0  0  0  0
    5.2120   -1.5430    2.0000 H   0  0  0  0  0  0  0  0  0  0  0  0
    6.9130   -1.9920    2.2680 H   0  0  0  0  0  0  0  0  0  0  0  0
    6.1180   -0.8310    3.3570 H   0  0  0  0  0  0  0  0  0  0  0  0
    2.7110   -1.3910    3.2400 H   0  0  0  0  0  0  0  0  0  0  0  0
    1.7990   -2.7700    3.8990 H   0  0  0  0  0  0  0  0  0  0  0  0
    4.6640   -6.0030    6.3640 H   0  0  0  0  0  0  0  0  0  0  0  0
    5.6270   -4.7440    7.1730 H   0  0  0  0  0  0  0  0  0  0  0  0
    6.4190   -5.9080    6.0840 H   0  0  0  0  0  0  0  0  0  0  0  0
    1.6140   -1.7130    1.0550 H   0  0  0  0  0  0  0  0  0  0  0  0
    0.6960   -3.0840    1.7210 H   0  0  0  0  0  0  0  0  0  0  0  0
  1  2  1  0  0  0  0
  1  3  1  0  0  0  0
  1 13  2  0  0  0  0
  2 14  2  0  0  0  0
  2 15  2  0  0  0  0
  2 16  1  0  0  0  0
  3  6  2  0  0  0  0
  3  8  1  0  0  0  0
  4  5  1  0  0  0  0
  4 12  2  0  0  0  0
  5  9  1  0  0  0  0
  5 19  1  0  0  0  0
  6  7  1  0  0  0  0
  7 11  1  0  0  0  0
  8 11  2  0  0  0  0
  8 18  1  0  0  0  0
  9 10  2  0  0  0  0
  9 20  1  0  0  0  0
 10 12  1  0  0  0  0
 10 24  1  0  0  0  0
 12 22  1  0  0  0  0
 13 17  1  0  0  0  0
 13 25  1  0  0  0  0
 16 23  1  0  0  0  0
 16 26  1  0  0  0  0
 17 18  2  0  0  0  0
 17 27  1  0  0  0  0
 18 28  1  0  0  0  0
 19 21  1  0  0  0  0
 19 29  1  0  0  0  0
 19 30  1  0  0  0  0
 20 31  1  0  0  0  0
 20 32  1  0  0  0  0
 20 33  1  0  0  0  0
 21 23  1  0  0  0  0
 21 34  1  0  0  0  0
 21 35  1  0  0  0  0
 22 36  1  0  0  0  0
 22 37  1  0  0  0  0
 22 38  1  0  0  0  0
 23 39  1  0  0  0  0
 23 40  1  0  0  0  0
M  END
>  <$CLUSTER>
788

>  <INDEX>
516346

$$$$
Chem T&I AMSACS-11579
  MOE2020           3D

 36 37  0  0  0  0  0  0  0  0999 V2000
    5.3150    3.4740    1.8710 S   0  0  0  0  0  0  0  0  0  0  0  0
   -0.4780    0.5280   -0.9520 N   0  0  0  0  0  0  0  0  0  0  0  0
    0.3290   -0.1170   -0.0880 N   0  0  0  0  0  0  0  0  0  0  0  0
   -0.3220   -1.0310    0.6910 C   0  0  0  0  0  0  0  0  0  0  0  0
   -1.6410   -0.9770    0.3110 C   0  0  0  0  0  0  0  0  0  0  0  0
   -1.6790   -0.0010   -0.7030 C   0  0  0  0  0  0  0  0  0  0  0  0
    6.0670    2.1320    2.7740 C   0  0  0  0  0  0  0  0  0  0  0  0
    5.3020    4.6260    2.7660 O   0  0  0  0  0  0  0  0  0  0  0  0
    6.0060    3.5700    0.5870 O   0  0  0  0  0  0  0  0  0  0  0  0
    3.7790    2.9060    1.6580 N   0  0  0  0  0  0  0  0  0  0  0  0
    6.6970    1.1100    2.0650 C   0  0  0  0  0  0  0  0  0  0  0  0
    6.0210    2.1330    4.1620 C   0  0  0  0  0  0  0  0  0  0  0  0
   -3.0110   -1.8860    0.9080 Br  0  0  0  0  0  0  0  0  0  0  0  0
    6.6140    1.0810    4.8600 C   0  0  0  0  0  0  0  0  0  0  0  0
    7.2870    0.0630    2.7720 C   0  0  0  0  0  0  0  0  0  0  0  0
    7.2450    0.0470    4.1670 C   0  0  0  0  0  0  0  0  0  0  0  0
    1.7430    0.1900   -0.0560 C   0  0  0  0  0  0  0  0  0  0  0  0
    2.0470    1.4090    0.7970 C   0  0  0  0  0  0  0  0  0  0  0  0
    3.5210    1.7390    0.8260 C   0  0  0  0  0  0  0  0  0  0  0  0
    7.8800   -1.0800    4.9140 C   0  0  0  0  0  0  0  0  0  0  0  0
    0.1110   -1.6660    1.4500 H   0  0  0  0  0  0  0  0  0  0  0  0
   -2.5800    0.2880   -1.2230 H   0  0  0  0  0  0  0  0  0  0  0  0
    3.2440    3.6660    1.2620 H   0  0  0  0  0  0  0  0  0  0  0  0
    6.7280    1.1290    0.9860 H   0  0  0  0  0  0  0  0  0  0  0  0
    5.5330    2.9370    4.6930 H   0  0  0  0  0  0  0  0  0  0  0  0
    6.5850    1.0670    5.9400 H   0  0  0  0  0  0  0  0  0  0  0  0
    7.7780   -0.7380    2.2390 H   0  0  0  0  0  0  0  0  0  0  0  0
    2.0840    0.3800   -1.0740 H   0  0  0  0  0  0  0  0  0  0  0  0
    2.2790   -0.6670    0.3530 H   0  0  0  0  0  0  0  0  0  0  0  0
    1.7120    1.2160    1.8160 H   0  0  0  0  0  0  0  0  0  0  0  0
    1.5050    2.2640    0.3920 H   0  0  0  0  0  0  0  0  0  0  0  0
    4.0690    0.8870    1.2280 H   0  0  0  0  0  0  0  0  0  0  0  0
    3.8600    1.9430   -0.1890 H   0  0  0  0  0  0  0  0  0  0  0  0
    7.7500   -0.9250    5.9850 H   0  0  0  0  0  0  0  0  0  0  0  0
    8.9440   -1.1180    4.6790 H   0  0  0  0  0  0  0  0  0  0  0  0
    7.4100   -2.0190    4.6230 H   0  0  0  0  0  0  0  0  0  0  0  0
  1  7  1  0  0  0  0
  1  8  2  0  0  0  0
  1  9  2  0  0  0  0
  1 10  1  0  0  0  0
  2  3  1  0  0  0  0
  2  6  2  0  0  0  0
  3  4  1  0  0  0  0
  3 17  1  0  0  0  0
  4  5  2  0  0  0  0
  4 21  1  0  0  0  0
  5  6  1  0  0  0  0
  5 13  1  0  0  0  0
  6 22  1  0  0  0  0
  7 11  1  0  0  0  0
  7 12  2  0  0  0  0
 10 19  1  0  0  0  0
 10 23  1  0  0  0  0
 11 15  2  0  0  0  0
 11 24  1  0  0  0  0
 12 14  1  0  0  0  0
 12 25  1  0  0  0  0
 14 16  2  0  0  0  0
 14 26  1  0  0  0  0
 15 16  1  0  0  0  0
 15 27  1  0  0  0  0
 16 20  1  0  0  0  0
 17 18  1  0  0  0  0
 17 28  1  0  0  0  0
 17 29  1  0  0  0  0
 18 19  1  0  0  0  0
 18 30  1  0  0  0  0
 18 31  1  0  0  0  0
 19 32  1  0  0  0  0
 19 33  1  0  0  0  0
 20 34  1  0  0  0  0
 20 35  1  0  0  0  0
 20 36  1  0  0  0  0
M  END
>  <$CLUSTER>
789

>  <INDEX>
518299

$$$$
Chem T&I AMSACS-11282
  MOE2020           3D

 45 46  0  0  0  0  0  0  0  0999 V2000
   -0.2680   -0.9900   -0.1000 S   0  0  0  0  0  0  0  0  0  0  0  0
    1.7410    2.4540   -0.5840 C   0  0  0  0  0  0  0  0  0  0  0  0
    3.3660    3.9300    0.0070 N   0  0  0  0  0  0  0  0  0  0  0  0
    3.6060    3.3850   -1.1950 N   0  0  0  0  0  0  0  0  0  0  0  0
    2.6590    2.4840   -1.5990 C   0  0  0  0  0  0  0  0  0  0  0  0
    0.7830    0.3330    0.1450 N   0  0  0  0  0  0  0  0  0  0  0  0
    2.2220    3.3520    0.3790 C   0  0  0  0  0  0  0  0  0  0  0  0
   -1.7350   -0.4030    0.7150 C   0  0  0  0  0  0  0  0  0  0  0  0
    0.2320   -2.1160    0.6650 O   0  0  0  0  0  0  0  0  0  0  0  0
   -0.5640   -1.1240   -1.5130 O   0  0  0  0  0  0  0  0  0  0  0  0
    0.4710    1.6270   -0.5040 C   0  0  0  0  0  0  0  0  0  0  0  0
   -4.0470    0.4760    1.9610 C   0  0  0  0  0  0  0  0  0  0  0  0
   -2.6840    0.2950   -0.0280 C   0  0  0  0  0  0  0  0  0  0  0  0
   -1.9210   -0.6720    2.0650 C   0  0  0  0  0  0  0  0  0  0  0  0
   -3.0860   -0.2270    2.6890 C   0  0  0  0  0  0  0  0  0  0  0  0
   -3.8460    0.7350    0.6050 C   0  0  0  0  0  0  0  0  0  0  0  0
   -5.3240    0.9530    2.6760 C   0  0  0  0  0  0  0  0  0  0  0  0
    4.8160    3.8120   -1.8990 C   0  0  0  0  0  0  0  0  0  0  0  0
    2.7410    1.7770   -2.8980 C   0  0  0  0  0  0  0  0  0  0  0  0
   -6.5780    0.3090    2.0800 C   0  0  0  0  0  0  0  0  0  0  0  0
   -5.4370    2.4800    2.6670 C   0  0  0  0  0  0  0  0  0  0  0  0
    6.0290    2.9860   -1.5090 C   0  0  0  0  0  0  0  0  0  0  0  0
    1.6960    0.0500   -0.1820 H   0  0  0  0  0  0  0  0  0  0  0  0
    1.7230    3.5530    1.3160 H   0  0  0  0  0  0  0  0  0  0  0  0
    0.0860    1.4500   -1.5080 H   0  0  0  0  0  0  0  0  0  0  0  0
   -0.2770    2.1600    0.0830 H   0  0  0  0  0  0  0  0  0  0  0  0
   -2.5230    0.4920   -1.0770 H   0  0  0  0  0  0  0  0  0  0  0  0
   -1.1740   -1.2180    2.6230 H   0  0  0  0  0  0  0  0  0  0  0  0
   -3.2450   -0.4270    3.7380 H   0  0  0  0  0  0  0  0  0  0  0  0
   -4.5920    1.2780    0.0440 H   0  0  0  0  0  0  0  0  0  0  0  0
   -5.2470    0.6310    3.7150 H   0  0  0  0  0  0  0  0  0  0  0  0
    5.0110    4.8570   -1.6590 H   0  0  0  0  0  0  0  0  0  0  0  0
    4.6520    3.7100   -2.9720 H   0  0  0  0  0  0  0  0  0  0  0  0
    1.8830    1.1130   -3.0050 H   0  0  0  0  0  0  0  0  0  0  0  0
    3.6600    1.1920   -2.9360 H   0  0  0  0  0  0  0  0  0  0  0  0
    2.7400    2.5050   -3.7090 H   0  0  0  0  0  0  0  0  0  0  0  0
   -6.6830    0.6130    1.0390 H   0  0  0  0  0  0  0  0  0  0  0  0
   -7.4540    0.6310    2.6420 H   0  0  0  0  0  0  0  0  0  0  0  0
   -6.4900   -0.7760    2.1350 H   0  0  0  0  0  0  0  0  0  0  0  0
   -5.5150    2.8320    1.6390 H   0  0  0  0  0  0  0  0  0  0  0  0
   -4.5520    2.9130    3.1330 H   0  0  0  0  0  0  0  0  0  0  0  0
   -6.3240    2.7820    3.2230 H   0  0  0  0  0  0  0  0  0  0  0  0
    6.2030    3.0800   -0.4370 H   0  0  0  0  0  0  0  0  0  0  0  0
    6.9030    3.3450   -2.0520 H   0  0  0  0  0  0  0  0  0  0  0  0
    5.8510    1.9400   -1.7580 H   0  0  0  0  0  0  0  0  0  0  0  0
  1  6  1  0  0  0  0
  1  8  1  0  0  0  0
  1  9  2  0  0  0  0
  1 10  2  0  0  0  0
  2  5  2  0  0  0  0
  2  7  1  0  0  0  0
  2 11  1  0  0  0  0
  3  4  1  0  0  0  0
  3  7  2  0  0  0  0
  4  5  1  0  0  0  0
  4 18  1  0  0  0  0
  5 19  1  0  0  0  0
  6 11  1  0  0  0  0
  6 23  1  0  0  0  0
  7 24  1  0  0  0  0
  8 13  1  0  0  0  0
  8 14  2  0  0  0  0
 11 25  1  0  0  0  0
 11 26  1  0  0  0  0
 12 15  2  0  0  0  0
 12 16  1  0  0  0  0
 12 17  1  0  0  0  0
 13 16  2  0  0  0  0
 13 27  1  0  0  0  0
 14 15  1  0  0  0  0
 14 28  1  0  0  0  0
 15 29  1  0  0  0  0
 16 30  1  0  0  0  0
 17 20  1  0  0  0  0
 17 21  1  0  0  0  0
 17 31  1  0  0  0  0
 18 22  1  0  0  0  0
 18 32  1  0  0  0  0
 18 33  1  0  0  0  0
 19 34  1  0  0  0  0
 19 35  1  0  0  0  0
 19 36  1  0  0  0  0
 20 37  1  0  0  0  0
 20 38  1  0  0  0  0
 20 39  1  0  0  0  0
 21 40  1  0  0  0  0
 21 41  1  0  0  0  0
 21 42  1  0  0  0  0
 22 43  1  0  0  0  0
 22 44  1  0  0  0  0
 22 45  1  0  0  0  0
M  END
>  <$CLUSTER>
790

>  <INDEX>
518122

$$$$
Chem T&I AMSACS-12205
  MOE2020           3D

 42 44  0  0  0  0  0  0  0  0999 V2000
    0.7420    1.3620   -1.0900 S   0  0  0  0  0  0  0  0  0  0  0  0
   -0.6910   -0.4670    0.3390 C   0  0  0  0  0  0  0  0  0  0  0  0
    0.3990   -1.2830    0.5320 N   0  0  0  0  0  0  0  0  0  0  0  0
   -0.6740    0.7070   -0.4280 N   0  0  0  0  0  0  0  0  0  0  0  0
   -1.8050   -0.8830    0.9560 N   0  0  0  0  0  0  0  0  0  0  0  0
   -1.3830   -2.0060    1.5530 N   0  0  0  0  0  0  0  0  0  0  0  0
    1.5340    1.9850    0.3760 C   0  0  0  0  0  0  0  0  0  0  0  0
   -0.0710   -2.2380    1.2980 C   0  0  0  0  0  0  0  0  0  0  0  0
    1.5750    0.3120   -1.6400 O   0  0  0  0  0  0  0  0  0  0  0  0
    0.3750    2.5110   -1.8960 O   0  0  0  0  0  0  0  0  0  0  0  0
    2.4240    1.1570    1.0590 C   0  0  0  0  0  0  0  0  0  0  0  0
    3.0640    1.6470    2.1970 C   0  0  0  0  0  0  0  0  0  0  0  0
    2.8150    2.9480    2.6360 C   0  0  0  0  0  0  0  0  0  0  0  0
   -2.2850   -2.8040    2.3530 C   0  0  0  0  0  0  0  0  0  0  0  0
    1.2800    3.2820    0.7980 C   0  0  0  0  0  0  0  0  0  0  0  0
    1.9240    3.7640    1.9370 C   0  0  0  0  0  0  0  0  0  0  0  0
   -3.1300   -3.7390    1.5070 C   0  0  0  0  0  0  0  0  0  0  0  0
   -4.3290   -3.2890    0.9430 C   0  0  0  0  0  0  0  0  0  0  0  0
   -5.0910   -4.1400    0.1410 C   0  0  0  0  0  0  0  0  0  0  0  0
   -6.5570   -3.5960   -0.5360 Cl  0  0  0  0  0  0  0  0  0  0  0  0
   -3.4570   -5.8900    0.4400 C   0  0  0  0  0  0  0  0  0  0  0  0
    4.0210    0.7820    2.9530 C   0  0  0  0  0  0  0  0  0  0  0  0
   -2.6920   -5.0410    1.2430 C   0  0  0  0  0  0  0  0  0  0  0  0
    3.5050    3.4630    3.8570 C   0  0  0  0  0  0  0  0  0  0  0  0
   -4.6560   -5.4400   -0.1090 C   0  0  0  0  0  0  0  0  0  0  0  0
   -1.5480    1.1850   -0.5940 H   0  0  0  0  0  0  0  0  0  0  0  0
    0.4980   -3.0780    1.6680 H   0  0  0  0  0  0  0  0  0  0  0  0
    2.6150    0.1520    0.7120 H   0  0  0  0  0  0  0  0  0  0  0  0
   -2.9470   -2.1370    2.9060 H   0  0  0  0  0  0  0  0  0  0  0  0
   -1.6990   -3.3980    3.0540 H   0  0  0  0  0  0  0  0  0  0  0  0
    0.5920    3.9100    0.2510 H   0  0  0  0  0  0  0  0  0  0  0  0
    1.7330    4.7700    2.2790 H   0  0  0  0  0  0  0  0  0  0  0  0
   -4.6660   -2.2800    1.1290 H   0  0  0  0  0  0  0  0  0  0  0  0
   -3.1190   -6.8970    0.2440 H   0  0  0  0  0  0  0  0  0  0  0  0
    4.0900   -0.1920    2.4690 H   0  0  0  0  0  0  0  0  0  0  0  0
    3.6660    0.6550    3.9760 H   0  0  0  0  0  0  0  0  0  0  0  0
    5.0040    1.2520    2.9650 H   0  0  0  0  0  0  0  0  0  0  0  0
   -1.7600   -5.3910    1.6610 H   0  0  0  0  0  0  0  0  0  0  0  0
    4.1560    2.6870    4.2610 H   0  0  0  0  0  0  0  0  0  0  0  0
    2.7620    3.7400    4.6050 H   0  0  0  0  0  0  0  0  0  0  0  0
    4.1010    4.3380    3.5960 H   0  0  0  0  0  0  0  0  0  0  0  0
   -5.2480   -6.0980   -0.7280 H   0  0  0  0  0  0  0  0  0  0  0  0
  1  4  1  0  0  0  0
  1  7  1  0  0  0  0
  1  9  2  0  0  0  0
  1 10  2  0  0  0  0
  2  3  1  0  0  0  0
  2  4  1  0  0  0  0
  2  5  2  0  0  0  0
  3  8  2  0  0  0  0
  4 26  1  0  0  0  0
  5  6  1  0  0  0  0
  6  8  1  0  0  0  0
  6 14  1  0  0  0  0
  7 11  1  0  0  0  0
  7 15  2  0  0  0  0
  8 27  1  0  0  0  0
 11 12  2  0  0  0  0
 11 28  1  0  0  0  0
 12 13  1  0  0  0  0
 12 22  1  0  0  0  0
 13 16  2  0  0  0  0
 13 24  1  0  0  0  0
 14 17  1  0  0  0  0
 14 29  1  0  0  0  0
 14 30  1  0  0  0  0
 15 16  1  0  0  0  0
 15 31  1  0  0  0  0
 16 32  1  0  0  0  0
 17 18  2  0  0  0  0
 17 23  1  0  0  0  0
 18 19  1  0  0  0  0
 18 33  1  0  0  0  0
 19 20  1  0  0  0  0
 19 25  2  0  0  0  0
 21 23  2  0  0  0  0
 21 25  1  0  0  0  0
 21 34  1  0  0  0  0
 22 35  1  0  0  0  0
 22 36  1  0  0  0  0
 22 37  1  0  0  0  0
 23 38  1  0  0  0  0
 24 39  1  0  0  0  0
 24 40  1  0  0  0  0
 24 41  1  0  0  0  0
 25 42  1  0  0  0  0
M  END
>  <$CLUSTER>
791

>  <INDEX>
518655

$$$$
Chem T&I AMSACS-12929
  MOE2020           3D

 42 43  0  0  0  0  0  0  0  0999 V2000
   -1.2660    1.1460   -0.4770 S   0  0  0  0  0  0  0  0  0  0  0  0
    0.0200    0.0250   -0.0150 C   0  0  0  0  0  0  0  0  0  0  0  0
   -2.6300    0.3030    0.0970 N   0  0  0  0  0  0  0  0  0  0  0  0
   -4.5020   -1.0560    3.6330 N   0  3  0  0  0  0  0  0  0  0  0  0
    0.4300   -0.9590   -0.9150 C   0  0  0  0  0  0  0  0  0  0  0  0
    1.4640   -1.8240   -0.5570 C   0  0  0  0  0  0  0  0  0  0  0  0
   -1.0970    2.3580    0.3000 O   0  0  0  0  0  0  0  0  0  0  0  0
   -1.3130    1.1930   -1.9250 O   0  0  0  0  0  0  0  0  0  0  0  0
    2.0840   -1.6990    0.6870 C   0  0  0  0  0  0  0  0  0  0  0  0
   -4.6090    0.4210    3.3350 C   0  0  0  0  0  0  0  0  0  0  0  0
   -3.1210   -1.5990    3.3500 C   0  0  0  0  0  0  0  0  0  0  0  0
    0.6380    0.1630    1.2280 C   0  0  0  0  0  0  0  0  0  0  0  0
   -2.8750    0.1230    1.5370 C   0  0  0  0  0  0  0  0  0  0  0  0
    1.6710   -0.7070    1.5770 C   0  0  0  0  0  0  0  0  0  0  0  0
   -2.7730   -1.3580    1.8800 C   0  0  0  0  0  0  0  0  0  0  0  0
   -4.2620    0.6670    1.8590 C   0  0  0  0  0  0  0  0  0  0  0  0
   -4.9450   -1.3730    5.0350 C   0  0  0  0  0  0  0  0  0  0  0  0
    1.9170   -2.7960   -1.3500 F   0  0  0  0  0  0  0  0  0  0  0  0
    3.0620   -2.5650    0.9520 F   0  0  0  0  0  0  0  0  0  0  0  0
   -5.3180   -2.8660    5.1590 C   0  0  0  0  0  0  0  0  0  0  0  0
   -3.9970   -0.9470    6.1410 C   0  0  0  0  0  0  0  0  0  0  0  0
   -2.5800   -0.6240   -0.3010 H   0  0  0  0  0  0  0  0  0  0  0  0
   -5.1350   -1.5260    3.0020 H   0  0  0  0  0  0  0  0  0  0  0  0
   -0.0480   -1.0500   -1.8790 H   0  0  0  0  0  0  0  0  0  0  0  0
   -3.9140    0.9720    3.9690 H   0  0  0  0  0  0  0  0  0  0  0  0
   -5.6260    0.7590    3.5310 H   0  0  0  0  0  0  0  0  0  0  0  0
   -3.1010   -2.6690    3.5580 H   0  0  0  0  0  0  0  0  0  0  0  0
   -2.3940   -1.0920    3.9840 H   0  0  0  0  0  0  0  0  0  0  0  0
    0.3200    0.9350    1.9130 H   0  0  0  0  0  0  0  0  0  0  0  0
   -2.1360    0.6620    2.1300 H   0  0  0  0  0  0  0  0  0  0  0  0
    2.1530   -0.6120    2.5390 H   0  0  0  0  0  0  0  0  0  0  0  0
   -3.4650   -1.9190    1.2520 H   0  0  0  0  0  0  0  0  0  0  0  0
   -1.7550   -1.6990    1.6930 H   0  0  0  0  0  0  0  0  0  0  0  0
   -4.2820    1.7380    1.6600 H   0  0  0  0  0  0  0  0  0  0  0  0
   -4.9980    0.1670    1.2300 H   0  0  0  0  0  0  0  0  0  0  0  0
   -5.8270   -0.7540    5.1950 H   0  0  0  0  0  0  0  0  0  0  0  0
   -4.4300   -3.4770    4.9970 H   0  0  0  0  0  0  0  0  0  0  0  0
   -6.0720   -3.1150    4.4120 H   0  0  0  0  0  0  0  0  0  0  0  0
   -5.7160   -3.0600    6.1550 H   0  0  0  0  0  0  0  0  0  0  0  0
   -3.0710   -1.5170    6.0660 H   0  0  0  0  0  0  0  0  0  0  0  0
   -4.4610   -1.1340    7.1090 H   0  0  0  0  0  0  0  0  0  0  0  0
   -3.7780    0.1160    6.0420 H   0  0  0  0  0  0  0  0  0  0  0  0
  1  2  1  0  0  0  0
  1  3  1  0  0  0  0
  1  7  2  0  0  0  0
  1  8  2  0  0  0  0
  2  5  1  0  0  0  0
  2 12  2  0  0  0  0
  3 13  1  0  0  0  0
  3 22  1  0  0  0  0
  4 10  1  0  0  0  0
  4 11  1  0  0  0  0
  4 17  1  0  0  0  0
  4 23  1  0  0  0  0
  5  6  2  0  0  0  0
  5 24  1  0  0  0  0
  6  9  1  0  0  0  0
  6 18  1  0  0  0  0
  9 14  2  0  0  0  0
  9 19  1  0  0  0  0
 10 16  1  0  0  0  0
 10 25  1  0  0  0  0
 10 26  1  0  0  0  0
 11 15  1  0  0  0  0
 11 27  1  0  0  0  0
 11 28  1  0  0  0  0
 12 14  1  0  0  0  0
 12 29  1  0  0  0  0
 13 15  1  0  0  0  0
 13 16  1  0  0  0  0
 13 30  1  0  0  0  0
 14 31  1  0  0  0  0
 15 32  1  0  0  0  0
 15 33  1  0  0  0  0
 16 34  1  0  0  0  0
 16 35  1  0  0  0  0
 17 20  1  0  0  0  0
 17 21  1  0  0  0  0
 17 36  1  0  0  0  0
 20 37  1  0  0  0  0
 20 38  1  0  0  0  0
 20 39  1  0  0  0  0
 21 40  1  0  0  0  0
 21 41  1  0  0  0  0
 21 42  1  0  0  0  0
M  CHG  1   4   1
M  END
>  <$CLUSTER>
792

>  <INDEX>
519041

$$$$
Chem T&I AMSACS-24731
  MOE2020           3D

 45 47  0  0  0  0  0  0  0  0999 V2000
    2.0930    0.6440   -1.6060 S   0  0  0  0  0  0  0  0  0  0  0  0
    1.8020    2.3960   -1.6920 C   0  0  0  0  0  0  0  0  0  0  0  0
    2.6620    3.2110   -2.4490 C   0  0  0  0  0  0  0  0  0  0  0  0
    0.8550    0.0960   -0.6250 N   0  0  0  0  0  0  0  0  0  0  0  0
    0.8730    3.1100   -1.1440 C   0  0  0  0  0  0  0  0  0  0  0  0
    0.9950    4.4040   -1.4520 N   0  0  0  0  0  0  0  0  0  0  0  0
    2.0840    4.4350   -2.2410 N   0  0  0  0  0  0  0  0  0  0  0  0
   -1.4790   -0.2310    1.0930 N   0  0  0  0  0  0  0  0  0  0  0  0
    1.9330    0.1170   -2.9610 O   0  0  0  0  0  0  0  0  0  0  0  0
    3.3820    0.4600   -0.9330 O   0  0  0  0  0  0  0  0  0  0  0  0
   -0.5200    0.1590   -1.1520 C   0  0  0  0  0  0  0  0  0  0  0  0
    0.8680    0.4870    0.7950 C   0  0  0  0  0  0  0  0  0  0  0  0
   -2.5460    0.1880    1.7830 C   0  0  0  0  0  0  0  0  0  0  0  0
   -1.5010   -0.6550   -0.3040 C   0  0  0  0  0  0  0  0  0  0  0  0
   -0.1230   -0.3290    1.6290 C   0  0  0  0  0  0  0  0  0  0  0  0
   -2.4560    0.5850    3.1330 C   0  0  0  0  0  0  0  0  0  0  0  0
   -3.8300    0.2590    1.2050 C   0  0  0  0  0  0  0  0  0  0  0  0
    3.8680    3.0290   -3.2860 C   0  0  0  0  0  0  0  0  0  0  0  0
   -4.8200    1.0790    3.2530 C   0  0  0  0  0  0  0  0  0  0  0  0
   -4.9490    0.6960    1.9250 C   0  0  0  0  0  0  0  0  0  0  0  0
   -3.5710    1.0230    3.8580 C   0  0  0  0  0  0  0  0  0  0  0  0
   -5.9260    1.4820    3.8720 F   0  0  0  0  0  0  0  0  0  0  0  0
    2.5060    5.7380   -2.7690 C   0  0  0  0  0  0  0  0  0  0  0  0
    3.4340    6.4710   -1.8160 C   0  0  0  0  0  0  0  0  0  0  0  0
    0.0930    2.7090   -0.5140 H   0  0  0  0  0  0  0  0  0  0  0  0
   -0.5250   -0.2340   -2.1690 H   0  0  0  0  0  0  0  0  0  0  0  0
   -0.8450    1.1990   -1.1630 H   0  0  0  0  0  0  0  0  0  0  0  0
    0.6050    1.5420    0.8710 H   0  0  0  0  0  0  0  0  0  0  0  0
    1.8710    0.3330    1.1920 H   0  0  0  0  0  0  0  0  0  0  0  0
   -2.5080   -0.5200   -0.6990 H   0  0  0  0  0  0  0  0  0  0  0  0
   -1.2270   -1.7090   -0.3590 H   0  0  0  0  0  0  0  0  0  0  0  0
    0.1860   -1.3740    1.6240 H   0  0  0  0  0  0  0  0  0  0  0  0
   -0.1180    0.0460    2.6520 H   0  0  0  0  0  0  0  0  0  0  0  0
   -1.4950    0.5500    3.6240 H   0  0  0  0  0  0  0  0  0  0  0  0
   -3.9550   -0.0330    0.1730 H   0  0  0  0  0  0  0  0  0  0  0  0
    4.1420    1.9740   -3.3040 H   0  0  0  0  0  0  0  0  0  0  0  0
    4.6900    3.6110   -2.8700 H   0  0  0  0  0  0  0  0  0  0  0  0
    3.6600    3.3680   -4.3010 H   0  0  0  0  0  0  0  0  0  0  0  0
   -5.9160    0.7350    1.4450 H   0  0  0  0  0  0  0  0  0  0  0  0
   -3.4590    1.3180    4.8910 H   0  0  0  0  0  0  0  0  0  0  0  0
    1.6210    6.3510   -2.9380 H   0  0  0  0  0  0  0  0  0  0  0  0
    3.0260    5.5820   -3.7140 H   0  0  0  0  0  0  0  0  0  0  0  0
    2.9250    6.6330   -0.8660 H   0  0  0  0  0  0  0  0  0  0  0  0
    3.7130    7.4320   -2.2480 H   0  0  0  0  0  0  0  0  0  0  0  0
    4.3310    5.8740   -1.6500 H   0  0  0  0  0  0  0  0  0  0  0  0
  1  2  1  0  0  0  0
  1  4  1  0  0  0  0
  1  9  2  0  0  0  0
  1 10  2  0  0  0  0
  2  3  2  0  0  0  0
  2  5  1  0  0  0  0
  3  7  1  0  0  0  0
  3 18  1  0  0  0  0
  4 11  1  0  0  0  0
  4 12  1  0  0  0  0
  5  6  2  0  0  0  0
  5 25  1  0  0  0  0
  6  7  1  0  0  0  0
  7 23  1  0  0  0  0
  8 13  1  0  0  0  0
  8 14  1  0  0  0  0
  8 15  1  0  0  0  0
 11 14  1  0  0  0  0
 11 26  1  0  0  0  0
 11 27  1  0  0  0  0
 12 15  1  0  0  0  0
 12 28  1  0  0  0  0
 12 29  1  0  0  0  0
 13 16  1  0  0  0  0
 13 17  2  0  0  0  0
 14 30  1  0  0  0  0
 14 31  1  0  0  0  0
 15 32  1  0  0  0  0
 15 33  1  0  0  0  0
 16 21  2  0  0  0  0
 16 34  1  0  0  0  0
 17 20  1  0  0  0  0
 17 35  1  0  0  0  0
 18 36  1  0  0  0  0
 18 37  1  0  0  0  0
 18 38  1  0  0  0  0
 19 20  2  0  0  0  0
 19 21  1  0  0  0  0
 19 22  1  0  0  0  0
 20 39  1  0  0  0  0
 21 40  1  0  0  0  0
 23 24  1  0  0  0  0
 23 41  1  0  0  0  0
 23 42  1  0  0  0  0
 24 43  1  0  0  0  0
 24 44  1  0  0  0  0
 24 45  1  0  0  0  0
M  END
>  <$CLUSTER>
793

>  <INDEX>
523145

$$$$
Specs AP-263/42699063
  MOE2020           3D

 39 40  0  0  0  0  0  0  0  0999 V2000
   -1.7270   -0.1590    0.3230 S   0  0  0  0  0  0  0  0  0  0  0  0
    0.0040   -0.0300   -0.0060 C   0  0  0  0  0  0  0  0  0  0  0  0
   -2.1450    1.4000    0.7670 N   0  0  0  0  0  0  0  0  0  0  0  0
   -2.0540    5.4970   -3.2150 C   0  0  0  0  0  0  0  0  0  0  0  0
   -1.9210   -1.0130    1.4810 O   0  0  0  0  0  0  0  0  0  0  0  0
   -2.4130   -0.4580   -0.9230 O   0  0  0  0  0  0  0  0  0  0  0  0
    0.4420    0.2930   -1.2940 C   0  0  0  0  0  0  0  0  0  0  0  0
    1.8110    0.3660   -1.5580 C   0  0  0  0  0  0  0  0  0  0  0  0
   -2.1100    4.4350   -2.1960 C   0  0  0  0  0  0  0  0  0  0  0  0
    2.7330    0.1110   -0.5420 C   0  0  0  0  0  0  0  0  0  0  0  0
   -1.2030    6.3750   -3.2490 O   0  0  0  0  0  0  0  0  0  0  0  0
    0.9250   -0.2930    1.0120 C   0  0  0  0  0  0  0  0  0  0  0  0
    2.2920   -0.2180    0.7410 C   0  0  0  0  0  0  0  0  0  0  0  0
   -2.1380    2.4620   -0.2220 C   0  0  0  0  0  0  0  0  0  0  0  0
   -1.1300    4.4280   -1.2030 C   0  0  0  0  0  0  0  0  0  0  0  0
   -3.1040    3.4560   -2.2010 C   0  0  0  0  0  0  0  0  0  0  0  0
   -3.0580    5.3870   -4.1140 O   0  0  0  0  0  0  0  0  0  0  0  0
    4.0210    0.2030   -0.8810 F   0  0  0  0  0  0  0  0  0  0  0  0
   -1.1420    3.4430   -0.2160 C   0  0  0  0  0  0  0  0  0  0  0  0
   -3.1190    2.4680   -1.2160 C   0  0  0  0  0  0  0  0  0  0  0  0
    2.2910    0.7160   -2.9280 C   0  0  0  0  0  0  0  0  0  0  0  0
   -3.1250    6.3510   -5.1600 C   0  0  0  0  0  0  0  0  0  0  0  0
   -4.3190    6.0410   -6.0400 C   0  0  0  0  0  0  0  0  0  0  0  0
   -2.4020    1.6010    1.7230 H   0  0  0  0  0  0  0  0  0  0  0  0
   -0.2740    0.4850   -2.0790 H   0  0  0  0  0  0  0  0  0  0  0  0
    0.5810   -0.5530    2.0020 H   0  0  0  0  0  0  0  0  0  0  0  0
    3.0090   -0.4150    1.5240 H   0  0  0  0  0  0  0  0  0  0  0  0
   -0.3610    5.1860   -1.1990 H   0  0  0  0  0  0  0  0  0  0  0  0
   -3.8630    3.4630   -2.9690 H   0  0  0  0  0  0  0  0  0  0  0  0
   -0.3830    3.4380    0.5520 H   0  0  0  0  0  0  0  0  0  0  0  0
   -3.8880    1.7090   -1.2220 H   0  0  0  0  0  0  0  0  0  0  0  0
    1.4350    0.8790   -3.5820 H   0  0  0  0  0  0  0  0  0  0  0  0
    2.8970   -0.1000   -3.3200 H   0  0  0  0  0  0  0  0  0  0  0  0
    2.8910    1.6250   -2.8820 H   0  0  0  0  0  0  0  0  0  0  0  0
   -2.2120    6.3100   -5.7540 H   0  0  0  0  0  0  0  0  0  0  0  0
   -3.2350    7.3480   -4.7320 H   0  0  0  0  0  0  0  0  0  0  0  0
   -4.2070    5.0440   -6.4670 H   0  0  0  0  0  0  0  0  0  0  0  0
   -4.3790    6.7750   -6.8430 H   0  0  0  0  0  0  0  0  0  0  0  0
   -5.2300    6.0800   -5.4430 H   0  0  0  0  0  0  0  0  0  0  0  0
  1  2  1  0  0  0  0
  1  3  1  0  0  0  0
  1  5  2  0  0  0  0
  1  6  2  0  0  0  0
  2  7  1  0  0  0  0
  2 12  2  0  0  0  0
  3 14  1  0  0  0  0
  3 24  1  0  0  0  0
  4  9  1  0  0  0  0
  4 11  2  0  0  0  0
  4 17  1  0  0  0  0
  7  8  2  0  0  0  0
  7 25  1  0  0  0  0
  8 10  1  0  0  0  0
  8 21  1  0  0  0  0
  9 15  2  0  0  0  0
  9 16  1  0  0  0  0
 10 13  2  0  0  0  0
 10 18  1  0  0  0  0
 12 13  1  0  0  0  0
 12 26  1  0  0  0  0
 13 27  1  0  0  0  0
 14 19  2  0  0  0  0
 14 20  1  0  0  0  0
 15 19  1  0  0  0  0
 15 28  1  0  0  0  0
 16 20  2  0  0  0  0
 16 29  1  0  0  0  0
 17 22  1  0  0  0  0
 19 30  1  0  0  0  0
 20 31  1  0  0  0  0
 21 32  1  0  0  0  0
 21 33  1  0  0  0  0
 21 34  1  0  0  0  0
 22 23  1  0  0  0  0
 22 35  1  0  0  0  0
 22 36  1  0  0  0  0
 23 37  1  0  0  0  0
 23 38  1  0  0  0  0
 23 39  1  0  0  0  0
M  END
>  <$CLUSTER>
794

>  <INDEX>
532403

$$$$
Chem T&I AMSACS-14733
  MOE2020           3D

 33 34  0  0  0  0  0  0  0  0999 V2000
    1.5830    1.5040   -0.1400 S   0  0  0  0  0  0  0  0  0  0  0  0
    0.2990    2.6940    0.1780 C   0  0  0  0  0  0  0  0  0  0  0  0
    0.3760    3.9930   -0.4920 C   0  0  0  0  0  0  0  0  0  0  0  0
   -0.6990    4.6930   -0.1030 N   0  0  0  0  0  0  0  0  0  0  0  0
   -0.7330    2.6480    0.8870 C   0  0  0  0  0  0  0  0  0  0  0  0
   -1.3460    3.8550    0.7260 N   0  0  0  0  0  0  0  0  0  0  0  0
    1.0620    0.2120    0.8600 N   0  0  0  0  0  0  0  0  0  0  0  0
    1.5160    1.1400   -1.5410 O   0  0  0  0  0  0  0  0  0  0  0  0
    2.8060    2.0420    0.4260 O   0  0  0  0  0  0  0  0  0  0  0  0
   -2.3980   -1.1660    0.7640 C   0  0  0  0  0  0  0  0  0  0  0  0
   -1.2700   -0.4500    1.1690 C   0  0  0  0  0  0  0  0  0  0  0  0
   -0.0820   -0.5500    0.4390 C   0  0  0  0  0  0  0  0  0  0  0  0
   -2.3400   -1.9790   -0.3670 C   0  0  0  0  0  0  0  0  0  0  0  0
   -1.1540   -2.0800   -1.0940 C   0  0  0  0  0  0  0  0  0  0  0  0
   -3.4930   -1.0190    1.5100 F   0  0  0  0  0  0  0  0  0  0  0  0
   -0.0240   -1.3660   -0.6940 C   0  0  0  0  0  0  0  0  0  0  0  0
   -3.3740   -2.6910   -0.8160 F   0  0  0  0  0  0  0  0  0  0  0  0
    1.3540    4.5920   -1.4290 C   0  0  0  0  0  0  0  0  0  0  0  0
   -2.6010    4.3190    1.3440 C   0  0  0  0  0  0  0  0  0  0  0  0
   -3.7990    4.1270    0.4310 C   0  0  0  0  0  0  0  0  0  0  0  0
   -1.0680    1.8230    1.4990 H   0  0  0  0  0  0  0  0  0  0  0  0
    1.5450   -0.0070    1.7200 H   0  0  0  0  0  0  0  0  0  0  0  0
   -1.3150    0.1800    2.0450 H   0  0  0  0  0  0  0  0  0  0  0  0
   -1.1100   -2.7120   -1.9680 H   0  0  0  0  0  0  0  0  0  0  0  0
    0.8930   -1.4440   -1.2590 H   0  0  0  0  0  0  0  0  0  0  0  0
    2.1530    3.8770   -1.6260 H   0  0  0  0  0  0  0  0  0  0  0  0
    1.7750    5.4950   -0.9870 H   0  0  0  0  0  0  0  0  0  0  0  0
    0.8540    4.8450   -2.3640 H   0  0  0  0  0  0  0  0  0  0  0  0
   -2.5050    5.3790    1.5780 H   0  0  0  0  0  0  0  0  0  0  0  0
   -2.7670    3.7570    2.2630 H   0  0  0  0  0  0  0  0  0  0  0  0
   -3.6450    4.6840   -0.4930 H   0  0  0  0  0  0  0  0  0  0  0  0
   -4.6980    4.4910    0.9290 H   0  0  0  0  0  0  0  0  0  0  0  0
   -3.9150    3.0680    0.2010 H   0  0  0  0  0  0  0  0  0  0  0  0
  1  2  1  0  0  0  0
  1  7  1  0  0  0  0
  1  8  2  0  0  0  0
  1  9  2  0  0  0  0
  2  3  1  0  0  0  0
  2  5  2  0  0  0  0
  3  4  2  0  0  0  0
  3 18  1  0  0  0  0
  4  6  1  0  0  0  0
  5  6  1  0  0  0  0
  5 21  1  0  0  0  0
  6 19  1  0  0  0  0
  7 12  1  0  0  0  0
  7 22  1  0  0  0  0
 10 11  2  0  0  0  0
 10 13  1  0  0  0  0
 10 15  1  0  0  0  0
 11 12  1  0  0  0  0
 11 23  1  0  0  0  0
 12 16  2  0  0  0  0
 13 14  2  0  0  0  0
 13 17  1  0  0  0  0
 14 16  1  0  0  0  0
 14 24  1  0  0  0  0
 16 25  1  0  0  0  0
 18 26  1  0  0  0  0
 18 27  1  0  0  0  0
 18 28  1  0  0  0  0
 19 20  1  0  0  0  0
 19 29  1  0  0  0  0
 19 30  1  0  0  0  0
 20 31  1  0  0  0  0
 20 32  1  0  0  0  0
 20 33  1  0  0  0  0
M  END
>  <$CLUSTER>
795

>  <INDEX>
519678

$$$$
Chem T&I AMSACS-15276
  MOE2020           3D

 34 36  0  0  0  0  0  0  0  0999 V2000
    0.9780    1.9000   -0.2330 S   0  0  0  0  0  0  0  0  0  0  0  0
   -0.1580    0.5690   -0.0900 C   0  0  0  0  0  0  0  0  0  0  0  0
    0.2040   -0.7100    0.3810 C   0  0  0  0  0  0  0  0  0  0  0  0
    2.1130    1.2470   -1.3230 N   0  0  0  0  0  0  0  0  0  0  0  0
   -0.7710   -1.7900    0.4860 C   0  0  0  0  0  0  0  0  0  0  0  0
    1.3880   -1.1810    0.7940 N   0  0  0  0  0  0  0  0  0  0  0  0
    1.1720   -2.5020    1.1450 O   0  0  0  0  0  0  0  0  0  0  0  0
   -0.1460   -2.8760    0.9570 N   0  0  0  0  0  0  0  0  0  0  0  0
    3.0170    0.2090   -0.8940 C   0  0  0  0  0  0  0  0  0  0  0  0
    0.3010    3.0010   -0.8900 O   0  0  0  0  0  0  0  0  0  0  0  0
    1.5930    2.0670    1.0670 O   0  0  0  0  0  0  0  0  0  0  0  0
   -1.5120    0.7230   -0.4410 C   0  0  0  0  0  0  0  0  0  0  0  0
    2.9550   -1.0830   -1.4500 C   0  0  0  0  0  0  0  0  0  0  0  0
   -2.4520   -0.3350   -0.3340 C   0  0  0  0  0  0  0  0  0  0  0  0
   -2.1230   -1.6230    0.1290 C   0  0  0  0  0  0  0  0  0  0  0  0
    3.8470   -2.0630   -0.9840 C   0  0  0  0  0  0  0  0  0  0  0  0
    3.9680    0.5020    0.0910 C   0  0  0  0  0  0  0  0  0  0  0  0
    4.8450   -0.4830    0.5420 C   0  0  0  0  0  0  0  0  0  0  0  0
    1.9770   -1.4430   -2.5340 C   0  0  0  0  0  0  0  0  0  0  0  0
    4.7820   -1.7660    0.0070 C   0  0  0  0  0  0  0  0  0  0  0  0
    3.7950   -3.4450   -1.5590 C   0  0  0  0  0  0  0  0  0  0  0  0
    2.1530    1.5880   -2.2730 H   0  0  0  0  0  0  0  0  0  0  0  0
   -1.8490    1.6820   -0.8060 H   0  0  0  0  0  0  0  0  0  0  0  0
   -3.4740   -0.1420   -0.6230 H   0  0  0  0  0  0  0  0  0  0  0  0
   -2.8490   -2.4190    0.2040 H   0  0  0  0  0  0  0  0  0  0  0  0
    4.0220    1.4980    0.5040 H   0  0  0  0  0  0  0  0  0  0  0  0
    5.5720   -0.2510    1.3060 H   0  0  0  0  0  0  0  0  0  0  0  0
    1.3650   -0.5740   -2.7750 H   0  0  0  0  0  0  0  0  0  0  0  0
    1.3360   -2.2540   -2.1900 H   0  0  0  0  0  0  0  0  0  0  0  0
    2.5210   -1.7620   -3.4230 H   0  0  0  0  0  0  0  0  0  0  0  0
    5.4570   -2.5320    0.3590 H   0  0  0  0  0  0  0  0  0  0  0  0
    3.0110   -3.4950   -2.3140 H   0  0  0  0  0  0  0  0  0  0  0  0
    3.5810   -4.1610   -0.7650 H   0  0  0  0  0  0  0  0  0  0  0  0
    4.7550   -3.6850   -2.0160 H   0  0  0  0  0  0  0  0  0  0  0  0
  1  2  1  0  0  0  0
  1  4  1  0  0  0  0
  1 10  2  0  0  0  0
  1 11  2  0  0  0  0
  2  3  1  0  0  0  0
  2 12  2  0  0  0  0
  3  5  1  0  0  0  0
  3  6  2  0  0  0  0
  4  9  1  0  0  0  0
  4 22  1  0  0  0  0
  5  8  2  0  0  0  0
  5 15  1  0  0  0  0
  6  7  1  0  0  0  0
  7  8  1  0  0  0  0
  9 13  2  0  0  0  0
  9 17  1  0  0  0  0
 12 14  1  0  0  0  0
 12 23  1  0  0  0  0
 13 16  1  0  0  0  0
 13 19  1  0  0  0  0
 14 15  2  0  0  0  0
 14 24  1  0  0  0  0
 15 25  1  0  0  0  0
 16 20  2  0  0  0  0
 16 21  1  0  0  0  0
 17 18  2  0  0  0  0
 17 26  1  0  0  0  0
 18 20  1  0  0  0  0
 18 27  1  0  0  0  0
 19 28  1  0  0  0  0
 19 29  1  0  0  0  0
 19 30  1  0  0  0  0
 20 31  1  0  0  0  0
 21 32  1  0  0  0  0
 21 33  1  0  0  0  0
 21 34  1  0  0  0  0
M  END
>  <$CLUSTER>
796

>  <INDEX>
519862

$$$$
Chem T&I AMSACS-17229
  MOE2020           3D

 35 37  0  0  0  0  0  0  0  0999 V2000
   -1.1650   -0.7570    1.5370 S   0  0  0  0  0  0  0  0  0  0  0  0
   -0.3670    0.1270    0.2380 C   0  0  0  0  0  0  0  0  0  0  0  0
    0.6070   -0.4650   -0.6080 C   0  0  0  0  0  0  0  0  0  0  0  0
    0.1680   -1.1970    2.5020 N   0  0  0  0  0  0  0  0  0  0  0  0
    1.0620   -1.7280   -0.5670 N   0  0  0  0  0  0  0  0  0  0  0  0
    2.1840   -1.8760   -1.7800 S   0  0  0  0  0  0  0  0  0  0  0  0
    1.2530    0.3500   -1.7060 C   0  0  0  0  0  0  0  0  0  0  0  0
    1.0730   -2.2150    2.0210 C   0  0  0  0  0  0  0  0  0  0  0  0
    2.1520   -0.3450   -2.4200 N   0  0  0  0  0  0  0  0  0  0  0  0
   -1.9760    0.1810    2.2880 O   0  0  0  0  0  0  0  0  0  0  0  0
   -1.7480   -1.9410    0.9400 O   0  0  0  0  0  0  0  0  0  0  0  0
   -0.6830    1.4750   -0.0070 C   0  0  0  0  0  0  0  0  0  0  0  0
    2.3690   -1.8700    1.5990 C   0  0  0  0  0  0  0  0  0  0  0  0
   -0.0720    2.2280   -1.0370 C   0  0  0  0  0  0  0  0  0  0  0  0
    0.9000    1.7060   -1.9080 C   0  0  0  0  0  0  0  0  0  0  0  0
    0.6340   -3.5410    1.9500 C   0  0  0  0  0  0  0  0  0  0  0  0
    3.2120   -2.8720    1.1080 C   0  0  0  0  0  0  0  0  0  0  0  0
    1.4840   -4.5300    1.4590 C   0  0  0  0  0  0  0  0  0  0  0  0
    2.7690   -4.1960    1.0380 C   0  0  0  0  0  0  0  0  0  0  0  0
    2.7040   -0.5440    1.7090 O   0  0  0  0  0  0  0  0  0  0  0  0
    1.0110   -5.9450    1.3860 C   0  0  0  0  0  0  0  0  0  0  0  0
    3.9970   -0.1610    1.2560 C   0  0  0  0  0  0  0  0  0  0  0  0
    0.3230   -0.7530    3.3960 H   0  0  0  0  0  0  0  0  0  0  0  0
   -1.4220    1.9550    0.6170 H   0  0  0  0  0  0  0  0  0  0  0  0
   -0.3680    3.2590   -1.1610 H   0  0  0  0  0  0  0  0  0  0  0  0
    1.3510    2.3040   -2.6860 H   0  0  0  0  0  0  0  0  0  0  0  0
   -0.3630   -3.7980    2.2760 H   0  0  0  0  0  0  0  0  0  0  0  0
    4.2100   -2.6220    0.7810 H   0  0  0  0  0  0  0  0  0  0  0  0
    3.4260   -4.9630    0.6560 H   0  0  0  0  0  0  0  0  0  0  0  0
   -0.0120   -6.0060    1.7570 H   0  0  0  0  0  0  0  0  0  0  0  0
    1.6570   -6.5760    1.9960 H   0  0  0  0  0  0  0  0  0  0  0  0
    1.0430   -6.2860    0.3510 H   0  0  0  0  0  0  0  0  0  0  0  0
    4.1300    0.9110    1.4010 H   0  0  0  0  0  0  0  0  0  0  0  0
    4.0960   -0.4000    0.1970 H   0  0  0  0  0  0  0  0  0  0  0  0
    4.7550   -0.7010    1.8230 H   0  0  0  0  0  0  0  0  0  0  0  0
  1  2  1  0  0  0  0
  1  4  1  0  0  0  0
  1 10  2  0  0  0  0
  1 11  2  0  0  0  0
  2  3  1  0  0  0  0
  2 12  2  0  0  0  0
  3  5  2  0  0  0  0
  3  7  1  0  0  0  0
  4  8  1  0  0  0  0
  4 23  1  0  0  0  0
  5  6  1  0  0  0  0
  6  9  1  0  0  0  0
  7  9  2  0  0  0  0
  7 15  1  0  0  0  0
  8 13  2  0  0  0  0
  8 16  1  0  0  0  0
 12 14  1  0  0  0  0
 12 24  1  0  0  0  0
 13 17  1  0  0  0  0
 13 20  1  0  0  0  0
 14 15  2  0  0  0  0
 14 25  1  0  0  0  0
 15 26  1  0  0  0  0
 16 18  2  0  0  0  0
 16 27  1  0  0  0  0
 17 19  2  0  0  0  0
 17 28  1  0  0  0  0
 18 19  1  0  0  0  0
 18 21  1  0  0  0  0
 19 29  1  0  0  0  0
 20 22  1  0  0  0  0
 21 30  1  0  0  0  0
 21 31  1  0  0  0  0
 21 32  1  0  0  0  0
 22 33  1  0  0  0  0
 22 34  1  0  0  0  0
 22 35  1  0  0  0  0
M  END
>  <$CLUSTER>
797

>  <INDEX>
520507

$$$$
Chem T&I AMSACS-06167
  MOE2020           3D

 43 45  0  0  0  0  0  0  0  0999 V2000
    1.5830    1.5040   -0.1400 S   0  0  0  0  0  0  0  0  0  0  0  0
    0.2990    2.6940    0.1780 C   0  0  0  0  0  0  0  0  0  0  0  0
    0.3780    3.9580   -0.4800 C   0  0  0  0  0  0  0  0  0  0  0  0
   -0.7580    2.6530    0.9060 C   0  0  0  0  0  0  0  0  0  0  0  0
   -1.4680    3.7830    0.8460 N   0  0  0  0  0  0  0  0  0  0  0  0
   -0.7580    4.5530    0.0010 N   0  0  0  0  0  0  0  0  0  0  0  0
    1.0620    0.2120    0.8600 N   0  0  0  0  0  0  0  0  0  0  0  0
   -3.6310   -4.0620   -0.1180 N   0  0  0  0  0  0  0  0  0  0  0  0
   -4.1670   -4.1410    1.1130 N   0  0  0  0  0  0  0  0  0  0  0  0
    1.5160    1.1400   -1.5410 O   0  0  0  0  0  0  0  0  0  0  0  0
    2.8060    2.0420    0.4260 O   0  0  0  0  0  0  0  0  0  0  0  0
   -3.4780   -6.1850    0.3630 C   0  0  0  0  0  0  0  0  0  0  0  0
   -3.2060   -5.2590   -0.6150 C   0  0  0  0  0  0  0  0  0  0  0  0
   -4.0680   -5.4410    1.4020 C   0  0  0  0  0  0  0  0  0  0  0  0
   -3.5620   -2.7720   -0.7950 C   0  0  0  0  0  0  0  0  0  0  0  0
   -0.0820   -0.5500    0.4390 C   0  0  0  0  0  0  0  0  0  0  0  0
    1.2970    4.6350   -1.4210 C   0  0  0  0  0  0  0  0  0  0  0  0
   -2.3400   -1.9790   -0.3670 C   0  0  0  0  0  0  0  0  0  0  0  0
   -1.2730    5.8920   -0.2960 C   0  0  0  0  0  0  0  0  0  0  0  0
   -1.2700   -0.4500    1.1690 C   0  0  0  0  0  0  0  0  0  0  0  0
   -0.0240   -1.3660   -0.6940 C   0  0  0  0  0  0  0  0  0  0  0  0
   -2.3980   -1.1660    0.7640 C   0  0  0  0  0  0  0  0  0  0  0  0
   -1.1540   -2.0800   -1.0940 C   0  0  0  0  0  0  0  0  0  0  0  0
   -0.7990    6.9260    0.7100 C   0  0  0  0  0  0  0  0  0  0  0  0
   -1.0420    1.7980    1.5020 H   0  0  0  0  0  0  0  0  0  0  0  0
    1.5450   -0.0070    1.7200 H   0  0  0  0  0  0  0  0  0  0  0  0
   -3.2830   -7.2470    0.3400 H   0  0  0  0  0  0  0  0  0  0  0  0
   -2.7500   -5.4410   -1.5770 H   0  0  0  0  0  0  0  0  0  0  0  0
   -4.4040   -5.8750    2.3320 H   0  0  0  0  0  0  0  0  0  0  0  0
   -4.4570   -2.1990   -0.5550 H   0  0  0  0  0  0  0  0  0  0  0  0
   -3.5160   -2.9400   -1.8710 H   0  0  0  0  0  0  0  0  0  0  0  0
    2.1260    3.9690   -1.6620 H   0  0  0  0  0  0  0  0  0  0  0  0
    1.6830    5.5440   -0.9610 H   0  0  0  0  0  0  0  0  0  0  0  0
    0.7590    4.8900   -2.3340 H   0  0  0  0  0  0  0  0  0  0  0  0
   -2.3620    5.8600   -0.2800 H   0  0  0  0  0  0  0  0  0  0  0  0
   -0.9330    6.1870   -1.2890 H   0  0  0  0  0  0  0  0  0  0  0  0
   -1.3150    0.1800    2.0450 H   0  0  0  0  0  0  0  0  0  0  0  0
    0.8930   -1.4440   -1.2590 H   0  0  0  0  0  0  0  0  0  0  0  0
   -3.3160   -1.0900    1.3270 H   0  0  0  0  0  0  0  0  0  0  0  0
   -1.1100   -2.7120   -1.9680 H   0  0  0  0  0  0  0  0  0  0  0  0
   -1.1340    6.6420    1.7080 H   0  0  0  0  0  0  0  0  0  0  0  0
   -1.2130    7.9010    0.4520 H   0  0  0  0  0  0  0  0  0  0  0  0
    0.2900    6.9770    0.6930 H   0  0  0  0  0  0  0  0  0  0  0  0
  1  2  1  0  0  0  0
  1  7  1  0  0  0  0
  1 10  2  0  0  0  0
  1 11  2  0  0  0  0
  2  3  2  0  0  0  0
  2  4  1  0  0  0  0
  3  6  1  0  0  0  0
  3 17  1  0  0  0  0
  4  5  2  0  0  0  0
  4 25  1  0  0  0  0
  5  6  1  0  0  0  0
  6 19  1  0  0  0  0
  7 16  1  0  0  0  0
  7 26  1  0  0  0  0
  8  9  1  0  0  0  0
  8 13  1  0  0  0  0
  8 15  1  0  0  0  0
  9 14  2  0  0  0  0
 12 13  2  0  0  0  0
 12 14  1  0  0  0  0
 12 27  1  0  0  0  0
 13 28  1  0  0  0  0
 14 29  1  0  0  0  0
 15 18  1  0  0  0  0
 15 30  1  0  0  0  0
 15 31  1  0  0  0  0
 16 20  2  0  0  0  0
 16 21  1  0  0  0  0
 17 32  1  0  0  0  0
 17 33  1  0  0  0  0
 17 34  1  0  0  0  0
 18 22  2  0  0  0  0
 18 23  1  0  0  0  0
 19 24  1  0  0  0  0
 19 35  1  0  0  0  0
 19 36  1  0  0  0  0
 20 22  1  0  0  0  0
 20 37  1  0  0  0  0
 21 23  2  0  0  0  0
 21 38  1  0  0  0  0
 22 39  1  0  0  0  0
 23 40  1  0  0  0  0
 24 41  1  0  0  0  0
 24 42  1  0  0  0  0
 24 43  1  0  0  0  0
M  END
>  <$CLUSTER>
798

>  <INDEX>
515128

$$$$
Chem T&I AMSACS-18868
  MOE2020           3D

 48 50  0  0  0  0  0  0  0  0999 V2000
    1.5830    1.5040   -0.1400 S   0  0  0  0  0  0  0  0  0  0  0  0
    0.2990    2.6940    0.1780 C   0  0  0  0  0  0  0  0  0  0  0  0
   -0.5120    2.8810    1.1320 C   0  0  0  0  0  0  0  0  0  0  0  0
   -1.1940    4.0270    0.8220 N   0  0  0  0  0  0  0  0  0  0  0  0
   -0.7890    4.6260   -0.3070 N   0  0  0  0  0  0  0  0  0  0  0  0
    0.2000    3.8400   -0.7510 C   0  0  0  0  0  0  0  0  0  0  0  0
    1.0620    0.2120    0.8600 N   0  0  0  0  0  0  0  0  0  0  0  0
    1.5160    1.1400   -1.5410 O   0  0  0  0  0  0  0  0  0  0  0  0
    2.8060    2.0420    0.4260 O   0  0  0  0  0  0  0  0  0  0  0  0
   -2.3760    4.7250    1.4420 C   0  0  0  0  0  0  0  0  0  0  0  0
   -2.3400   -1.9790   -0.3670 C   0  0  0  0  0  0  0  0  0  0  0  0
   -3.5000   -2.7140   -0.7830 N   0  0  0  0  0  0  0  0  0  0  0  0
   -0.0820   -0.5500    0.4390 C   0  0  0  0  0  0  0  0  0  0  0  0
   -2.3980   -1.1660    0.7640 C   0  0  0  0  0  0  0  0  0  0  0  0
   -1.1540   -2.0800   -1.0940 C   0  0  0  0  0  0  0  0  0  0  0  0
   -0.8140    2.1100    2.3590 C   0  0  0  0  0  0  0  0  0  0  0  0
    0.9230    4.2020   -1.9930 C   0  0  0  0  0  0  0  0  0  0  0  0
   -1.2700   -0.4500    1.1690 C   0  0  0  0  0  0  0  0  0  0  0  0
   -0.0240   -1.3660   -0.6940 C   0  0  0  0  0  0  0  0  0  0  0  0
   -3.5450   -3.5960   -1.9510 C   0  0  0  0  0  0  0  0  0  0  0  0
   -4.7440   -2.6060   -0.0200 C   0  0  0  0  0  0  0  0  0  0  0  0
   -3.1560    4.1070    2.4250 C   0  0  0  0  0  0  0  0  0  0  0  0
   -2.7160    6.0310    1.0400 C   0  0  0  0  0  0  0  0  0  0  0  0
   -3.7930    6.7030    1.6250 C   0  0  0  0  0  0  0  0  0  0  0  0
   -4.2340    4.7850    3.0060 C   0  0  0  0  0  0  0  0  0  0  0  0
   -4.5510    6.0810    2.6110 C   0  0  0  0  0  0  0  0  0  0  0  0
    1.5450   -0.0070    1.7200 H   0  0  0  0  0  0  0  0  0  0  0  0
   -3.3160   -1.0900    1.3270 H   0  0  0  0  0  0  0  0  0  0  0  0
   -1.1100   -2.7120   -1.9680 H   0  0  0  0  0  0  0  0  0  0  0  0
   -0.1600    1.2400    2.4120 H   0  0  0  0  0  0  0  0  0  0  0  0
   -1.8530    1.7820    2.3360 H   0  0  0  0  0  0  0  0  0  0  0  0
   -0.6510    2.7400    3.2330 H   0  0  0  0  0  0  0  0  0  0  0  0
    1.6880    3.4540   -2.1990 H   0  0  0  0  0  0  0  0  0  0  0  0
    1.3930    5.1780   -1.8690 H   0  0  0  0  0  0  0  0  0  0  0  0
    0.2200    4.2410   -2.8250 H   0  0  0  0  0  0  0  0  0  0  0  0
   -1.3150    0.1800    2.0450 H   0  0  0  0  0  0  0  0  0  0  0  0
    0.8930   -1.4440   -1.2590 H   0  0  0  0  0  0  0  0  0  0  0  0
   -2.5710   -3.6010   -2.4400 H   0  0  0  0  0  0  0  0  0  0  0  0
   -4.3010   -3.2360   -2.6490 H   0  0  0  0  0  0  0  0  0  0  0  0
   -3.7970   -4.6080   -1.6330 H   0  0  0  0  0  0  0  0  0  0  0  0
   -4.5970   -1.9290    0.8210 H   0  0  0  0  0  0  0  0  0  0  0  0
   -5.0290   -3.5900    0.3520 H   0  0  0  0  0  0  0  0  0  0  0  0
   -5.5330   -2.2190   -0.6650 H   0  0  0  0  0  0  0  0  0  0  0  0
   -2.9250    3.1000    2.7380 H   0  0  0  0  0  0  0  0  0  0  0  0
   -2.1370    6.5200    0.2700 H   0  0  0  0  0  0  0  0  0  0  0  0
   -4.0370    7.7070    1.3110 H   0  0  0  0  0  0  0  0  0  0  0  0
   -4.8250    4.2980    3.7680 H   0  0  0  0  0  0  0  0  0  0  0  0
   -5.3810    6.6010    3.0670 H   0  0  0  0  0  0  0  0  0  0  0  0
  1  2  1  0  0  0  0
  1  7  1  0  0  0  0
  1  8  2  0  0  0  0
  1  9  2  0  0  0  0
  2  3  2  0  0  0  0
  2  6  1  0  0  0  0
  3  4  1  0  0  0  0
  3 16  1  0  0  0  0
  4  5  1  0  0  0  0
  4 10  1  0  0  0  0
  5  6  2  0  0  0  0
  6 17  1  0  0  0  0
  7 13  1  0  0  0  0
  7 27  1  0  0  0  0
 10 22  1  0  0  0  0
 10 23  2  0  0  0  0
 11 12  1  0  0  0  0
 11 14  2  0  0  0  0
 11 15  1  0  0  0  0
 12 20  1  0  0  0  0
 12 21  1  0  0  0  0
 13 18  2  0  0  0  0
 13 19  1  0  0  0  0
 14 18  1  0  0  0  0
 14 28  1  0  0  0  0
 15 19  2  0  0  0  0
 15 29  1  0  0  0  0
 16 30  1  0  0  0  0
 16 31  1  0  0  0  0
 16 32  1  0  0  0  0
 17 33  1  0  0  0  0
 17 34  1  0  0  0  0
 17 35  1  0  0  0  0
 18 36  1  0  0  0  0
 19 37  1  0  0  0  0
 20 38  1  0  0  0  0
 20 39  1  0  0  0  0
 20 40  1  0  0  0  0
 21 41  1  0  0  0  0
 21 42  1  0  0  0  0
 21 43  1  0  0  0  0
 22 25  2  0  0  0  0
 22 44  1  0  0  0  0
 23 24  1  0  0  0  0
 23 45  1  0  0  0  0
 24 26  2  0  0  0  0
 24 46  1  0  0  0  0
 25 26  1  0  0  0  0
 25 47  1  0  0  0  0
 26 48  1  0  0  0  0
M  END
>  <$CLUSTER>
799

>  <INDEX>
521222

$$$$
Chem T&I AMSACS-21429
  MOE2020           3D

 35 35  0  0  0  0  0  0  0  0999 V2000
   -3.0410    0.7900    2.3990 S   0  0  0  0  0  0  0  0  0  0  0  0
   -1.6450    0.3920    1.4110 C   0  0  0  0  0  0  0  0  0  0  0  0
   -3.0820    2.2310    2.5460 O   0  0  0  0  0  0  0  0  0  0  0  0
   -4.1780    0.0660    1.8690 O   0  0  0  0  0  0  0  0  0  0  0  0
   -2.5780    0.0920    3.8820 N   0  0  0  0  0  0  0  0  0  0  0  0
   -1.6230   -0.7960    0.6820 C   0  0  0  0  0  0  0  0  0  0  0  0
   -0.5720    1.2780    1.3300 C   0  0  0  0  0  0  0  0  0  0  0  0
    0.5250    0.9770    0.5210 C   0  0  0  0  0  0  0  0  0  0  0  0
   -0.5260   -1.0990   -0.1280 C   0  0  0  0  0  0  0  0  0  0  0  0
    0.5600   -0.2180   -0.2110 C   0  0  0  0  0  0  0  0  0  0  0  0
   -2.4400   -1.3620    3.9970 C   0  0  0  0  0  0  0  0  0  0  0  0
    1.7360   -0.5360   -1.0970 C   0  0  0  0  0  0  0  0  0  0  0  0
   -2.0120   -1.7130    5.4030 C   0  0  0  0  0  0  0  0  0  0  0  0
   -1.8460   -3.2290    5.5650 C   0  0  0  0  0  0  0  0  0  0  0  0
    1.5440    0.0020   -2.5070 C   0  0  0  0  0  0  0  0  0  0  0  0
   -1.4140   -3.5910    6.9810 C   0  0  0  0  0  0  0  0  0  0  0  0
   -3.2670    0.3740    4.5650 H   0  0  0  0  0  0  0  0  0  0  0  0
   -2.4540   -1.4820    0.7430 H   0  0  0  0  0  0  0  0  0  0  0  0
   -0.5890    2.1990    1.8940 H   0  0  0  0  0  0  0  0  0  0  0  0
    1.3520    1.6690    0.4590 H   0  0  0  0  0  0  0  0  0  0  0  0
   -0.5150   -2.0190   -0.6940 H   0  0  0  0  0  0  0  0  0  0  0  0
   -1.6890   -1.7140    3.2890 H   0  0  0  0  0  0  0  0  0  0  0  0
   -3.3960   -1.8370    3.7780 H   0  0  0  0  0  0  0  0  0  0  0  0
    1.8580   -1.6180   -1.1460 H   0  0  0  0  0  0  0  0  0  0  0  0
    2.6320   -0.0880   -0.6680 H   0  0  0  0  0  0  0  0  0  0  0  0
   -2.7680   -1.3600    6.1040 H   0  0  0  0  0  0  0  0  0  0  0  0
   -1.0610   -1.2250    5.6180 H   0  0  0  0  0  0  0  0  0  0  0  0
   -1.0900   -3.5800    4.8630 H   0  0  0  0  0  0  0  0  0  0  0  0
   -2.7970   -3.7150    5.3490 H   0  0  0  0  0  0  0  0  0  0  0  0
    0.6490   -0.4400   -2.9460 H   0  0  0  0  0  0  0  0  0  0  0  0
    2.4120   -0.2540   -3.1150 H   0  0  0  0  0  0  0  0  0  0  0  0
    1.4330    1.0860   -2.4700 H   0  0  0  0  0  0  0  0  0  0  0  0
   -0.4630   -3.1080    7.2050 H   0  0  0  0  0  0  0  0  0  0  0  0
   -1.3000   -4.6720    7.0610 H   0  0  0  0  0  0  0  0  0  0  0  0
   -2.1700   -3.2520    7.6890 H   0  0  0  0  0  0  0  0  0  0  0  0
  1  2  1  0  0  0  0
  1  3  2  0  0  0  0
  1  4  2  0  0  0  0
  1  5  1  0  0  0  0
  2  6  1  0  0  0  0
  2  7  2  0  0  0  0
  5 11  1  0  0  0  0
  5 17  1  0  0  0  0
  6  9  2  0  0  0  0
  6 18  1  0  0  0  0
  7  8  1  0  0  0  0
  7 19  1  0  0  0  0
  8 10  2  0  0  0  0
  8 20  1  0  0  0  0
  9 10  1  0  0  0  0
  9 21  1  0  0  0  0
 10 12  1  0  0  0  0
 11 13  1  0  0  0  0
 11 22  1  0  0  0  0
 11 23  1  0  0  0  0
 12 15  1  0  0  0  0
 12 24  1  0  0  0  0
 12 25  1  0  0  0  0
 13 14  1  0  0  0  0
 13 26  1  0  0  0  0
 13 27  1  0  0  0  0
 14 16  1  0  0  0  0
 14 28  1  0  0  0  0
 14 29  1  0  0  0  0
 15 30  1  0  0  0  0
 15 31  1  0  0  0  0
 15 32  1  0  0  0  0
 16 33  1  0  0  0  0
 16 34  1  0  0  0  0
 16 35  1  0  0  0  0
M  END
>  <$CLUSTER>
800

>  <INDEX>
522159

$$$$
Chem T&I AMSACS-19833
  MOE2020           3D

 36 37  0  0  0  0  0  0  0  0999 V2000
   -1.7350   -0.4030    0.7150 C   0  0  0  0  0  0  0  0  0  0  0  0
   -0.2680   -0.9900   -0.1000 S   0  0  0  0  0  0  0  0  0  0  0  0
   -2.9070   -1.2740    0.7370 C   0  0  0  0  0  0  0  0  0  0  0  0
   -3.8680   -0.6090    1.3940 N   0  0  0  0  0  0  0  0  0  0  0  0
   -1.9930    0.6720    1.3030 C   0  0  0  0  0  0  0  0  0  0  0  0
   -3.2860    0.5580    1.7210 N   0  0  0  0  0  0  0  0  0  0  0  0
    0.7830    0.3330    0.1450 N   0  0  0  0  0  0  0  0  0  0  0  0
    0.2320   -2.1160    0.6650 O   0  0  0  0  0  0  0  0  0  0  0  0
   -0.5640   -1.1240   -1.5130 O   0  0  0  0  0  0  0  0  0  0  0  0
    0.4710    1.6270   -0.5040 C   0  0  0  0  0  0  0  0  0  0  0  0
    4.0660    4.0160   -0.7530 C   0  0  0  0  0  0  0  0  0  0  0  0
    1.7410    2.4540   -0.5840 C   0  0  0  0  0  0  0  0  0  0  0  0
   -3.1720   -2.6320    0.2070 C   0  0  0  0  0  0  0  0  0  0  0  0
    5.1840    4.7260   -0.9080 F   0  0  0  0  0  0  0  0  0  0  0  0
   -4.0830    1.5490    2.4670 C   0  0  0  0  0  0  0  0  0  0  0  0
    3.2740    4.0660    0.3920 C   0  0  0  0  0  0  0  0  0  0  0  0
    3.7020    3.1910   -1.8160 C   0  0  0  0  0  0  0  0  0  0  0  0
    2.5430    2.4170   -1.7350 C   0  0  0  0  0  0  0  0  0  0  0  0
    2.1150    3.2930    0.4750 C   0  0  0  0  0  0  0  0  0  0  0  0
   -4.0810    1.2820    3.9620 C   0  0  0  0  0  0  0  0  0  0  0  0
   -1.3310    1.5130    1.4480 H   0  0  0  0  0  0  0  0  0  0  0  0
    1.6960    0.0500   -0.1820 H   0  0  0  0  0  0  0  0  0  0  0  0
   -0.2770    2.1600    0.0830 H   0  0  0  0  0  0  0  0  0  0  0  0
    0.0860    1.4500   -1.5080 H   0  0  0  0  0  0  0  0  0  0  0  0
   -2.2790   -3.0080   -0.2920 H   0  0  0  0  0  0  0  0  0  0  0  0
   -3.9960   -2.5900   -0.5060 H   0  0  0  0  0  0  0  0  0  0  0  0
   -3.4370   -3.2980    1.0290 H   0  0  0  0  0  0  0  0  0  0  0  0
   -5.1110    1.5150    2.1060 H   0  0  0  0  0  0  0  0  0  0  0  0
   -3.6670    2.5400    2.2870 H   0  0  0  0  0  0  0  0  0  0  0  0
    3.5570    4.7040    1.2160 H   0  0  0  0  0  0  0  0  0  0  0  0
    4.3170    3.1510   -2.7030 H   0  0  0  0  0  0  0  0  0  0  0  0
    2.2610    1.7850   -2.5640 H   0  0  0  0  0  0  0  0  0  0  0  0
    1.5010    3.3420    1.3620 H   0  0  0  0  0  0  0  0  0  0  0  0
   -4.4950    0.2920    4.1550 H   0  0  0  0  0  0  0  0  0  0  0  0
   -4.6880    2.0340    4.4660 H   0  0  0  0  0  0  0  0  0  0  0  0
   -3.0590    1.3280    4.3380 H   0  0  0  0  0  0  0  0  0  0  0  0
  1  2  1  0  0  0  0
  1  3  1  0  0  0  0
  1  5  2  0  0  0  0
  2  7  1  0  0  0  0
  2  8  2  0  0  0  0
  2  9  2  0  0  0  0
  3  4  2  0  0  0  0
  3 13  1  0  0  0  0
  4  6  1  0  0  0  0
  5  6  1  0  0  0  0
  5 21  1  0  0  0  0
  6 15  1  0  0  0  0
  7 10  1  0  0  0  0
  7 22  1  0  0  0  0
 10 12  1  0  0  0  0
 10 23  1  0  0  0  0
 10 24  1  0  0  0  0
 11 14  1  0  0  0  0
 11 16  1  0  0  0  0
 11 17  2  0  0  0  0
 12 18  2  0  0  0  0
 12 19  1  0  0  0  0
 13 25  1  0  0  0  0
 13 26  1  0  0  0  0
 13 27  1  0  0  0  0
 15 20  1  0  0  0  0
 15 28  1  0  0  0  0
 15 29  1  0  0  0  0
 16 19  2  0  0  0  0
 16 30  1  0  0  0  0
 17 18  1  0  0  0  0
 17 31  1  0  0  0  0
 18 32  1  0  0  0  0
 19 33  1  0  0  0  0
 20 34  1  0  0  0  0
 20 35  1  0  0  0  0
 20 36  1  0  0  0  0
M  END
>  <$CLUSTER>
801

>  <INDEX>
521556

$$$$
Specs AP-263/41418019
  MOE2020           3D

 43 45  0  0  0  0  0  0  0  0999 V2000
    1.7540   -0.2720    0.2650 S   0  0  0  0  0  0  0  0  0  0  0  0
    1.7860   -0.4580    1.9270 N   0  0  0  0  0  0  0  0  0  0  0  0
    0.0720    0.1890   -0.0640 C   0  0  0  0  0  0  0  0  0  0  0  0
   -0.1790    1.5210   -0.4320 C   0  0  0  0  0  0  0  0  0  0  0  0
   -0.9870   -0.7420    0.0120 C   0  0  0  0  0  0  0  0  0  0  0  0
    1.6320    0.7460    2.7750 C   0  0  0  0  0  0  0  0  0  0  0  0
    2.6200    0.8520   -0.0460 O   0  0  0  0  0  0  0  0  0  0  0  0
    2.0170   -1.5640   -0.3420 O   0  0  0  0  0  0  0  0  0  0  0  0
   -1.4750    1.9360   -0.7300 C   0  0  0  0  0  0  0  0  0  0  0  0
   -2.2840   -0.2990   -0.3050 C   0  0  0  0  0  0  0  0  0  0  0  0
   -2.5260    1.0260   -0.6680 C   0  0  0  0  0  0  0  0  0  0  0  0
    1.8210    0.4900    4.2540 C   0  0  0  0  0  0  0  0  0  0  0  0
    1.0420   -1.6230    2.5000 C   0  0  0  0  0  0  0  0  0  0  0  0
    1.7680   -0.8090    4.7950 C   0  0  0  0  0  0  0  0  0  0  0  0
    1.5940   -1.9940    3.8820 C   0  0  0  0  0  0  0  0  0  0  0  0
   -0.8000   -2.1910    0.3820 C   0  0  0  0  0  0  0  0  0  0  0  0
   -1.7380    3.3550   -1.1150 C   0  0  0  0  0  0  0  0  0  0  0  0
   -3.9170    1.4700   -0.9920 C   0  0  0  0  0  0  0  0  0  0  0  0
    2.0030    1.5810    5.1180 C   0  0  0  0  0  0  0  0  0  0  0  0
    1.9330   -0.9980    6.1740 C   0  0  0  0  0  0  0  0  0  0  0  0
    2.1570    1.3840    6.4920 C   0  0  0  0  0  0  0  0  0  0  0  0
    2.1230    0.0950    7.0180 C   0  0  0  0  0  0  0  0  0  0  0  0
    0.6370    2.2270   -0.4840 H   0  0  0  0  0  0  0  0  0  0  0  0
    0.6300    1.1460    2.6220 H   0  0  0  0  0  0  0  0  0  0  0  0
    2.3690    1.4840    2.4590 H   0  0  0  0  0  0  0  0  0  0  0  0
   -3.1070   -0.9970   -0.2670 H   0  0  0  0  0  0  0  0  0  0  0  0
    1.1470   -2.4780    1.8320 H   0  0  0  0  0  0  0  0  0  0  0  0
   -0.0120   -1.3630    2.5940 H   0  0  0  0  0  0  0  0  0  0  0  0
    2.5640   -2.4730    3.7490 H   0  0  0  0  0  0  0  0  0  0  0  0
    0.9040   -2.6940    4.3530 H   0  0  0  0  0  0  0  0  0  0  0  0
    0.2520   -2.3780    0.5990 H   0  0  0  0  0  0  0  0  0  0  0  0
   -1.1180   -2.8220   -0.4480 H   0  0  0  0  0  0  0  0  0  0  0  0
   -1.3990   -2.4210    1.2630 H   0  0  0  0  0  0  0  0  0  0  0  0
   -0.8020    3.9130   -1.1090 H   0  0  0  0  0  0  0  0  0  0  0  0
   -2.4320    3.8020   -0.4030 H   0  0  0  0  0  0  0  0  0  0  0  0
   -2.1730    3.3860   -2.1140 H   0  0  0  0  0  0  0  0  0  0  0  0
   -3.9090    2.5290   -1.2510 H   0  0  0  0  0  0  0  0  0  0  0  0
   -4.5600    1.3120   -0.1260 H   0  0  0  0  0  0  0  0  0  0  0  0
   -4.2960    0.8920   -1.8350 H   0  0  0  0  0  0  0  0  0  0  0  0
    2.0240    2.5830    4.7160 H   0  0  0  0  0  0  0  0  0  0  0  0
    1.9130   -1.9960    6.5850 H   0  0  0  0  0  0  0  0  0  0  0  0
    2.3020    2.2310    7.1460 H   0  0  0  0  0  0  0  0  0  0  0  0
    2.2440   -0.0580    8.0800 H   0  0  0  0  0  0  0  0  0  0  0  0
  1  2  1  0  0  0  0
  1  3  1  0  0  0  0
  1  7  2  0  0  0  0
  1  8  2  0  0  0  0
  2  6  1  0  0  0  0
  2 13  1  0  0  0  0
  3  4  2  0  0  0  0
  3  5  1  0  0  0  0
  4  9  1  0  0  0  0
  4 23  1  0  0  0  0
  5 10  2  0  0  0  0
  5 16  1  0  0  0  0
  6 12  1  0  0  0  0
  6 24  1  0  0  0  0
  6 25  1  0  0  0  0
  9 11  2  0  0  0  0
  9 17  1  0  0  0  0
 10 11  1  0  0  0  0
 10 26  1  0  0  0  0
 11 18  1  0  0  0  0
 12 14  2  0  0  0  0
 12 19  1  0  0  0  0
 13 15  1  0  0  0  0
 13 27  1  0  0  0  0
 13 28  1  0  0  0  0
 14 15  1  0  0  0  0
 14 20  1  0  0  0  0
 15 29  1  0  0  0  0
 15 30  1  0  0  0  0
 16 31  1  0  0  0  0
 16 32  1  0  0  0  0
 16 33  1  0  0  0  0
 17 34  1  0  0  0  0
 17 35  1  0  0  0  0
 17 36  1  0  0  0  0
 18 37  1  0  0  0  0
 18 38  1  0  0  0  0
 18 39  1  0  0  0  0
 19 21  2  0  0  0  0
 19 40  1  0  0  0  0
 20 22  2  0  0  0  0
 20 41  1  0  0  0  0
 21 22  1  0  0  0  0
 21 42  1  0  0  0  0
 22 43  1  0  0  0  0
M  END
>  <$CLUSTER>
802

>  <INDEX>
532316

$$$$
Chem T&I AMSACS-17673
  MOE2020           3D

 31 33  0  0  0  0  0  0  0  0999 V2000
    0.9780    1.9000   -0.2330 S   0  0  0  0  0  0  0  0  0  0  0  0
   -0.1580    0.5690   -0.0900 C   0  0  0  0  0  0  0  0  0  0  0  0
    0.2040   -0.7100    0.3810 C   0  0  0  0  0  0  0  0  0  0  0  0
   -0.7710   -1.7900    0.4860 C   0  0  0  0  0  0  0  0  0  0  0  0
    1.3880   -1.1810    0.7940 N   0  0  0  0  0  0  0  0  0  0  0  0
    1.1720   -2.5020    1.1450 O   0  0  0  0  0  0  0  0  0  0  0  0
    2.1130    1.2470   -1.3230 N   0  0  0  0  0  0  0  0  0  0  0  0
   -0.1460   -2.8760    0.9570 N   0  0  0  0  0  0  0  0  0  0  0  0
    0.3010    3.0010   -0.8900 O   0  0  0  0  0  0  0  0  0  0  0  0
    1.5930    2.0670    1.0670 O   0  0  0  0  0  0  0  0  0  0  0  0
   -1.5120    0.7230   -0.4410 C   0  0  0  0  0  0  0  0  0  0  0  0
    1.2160   -0.3960   -4.5350 C   0  0  0  0  0  0  0  0  0  0  0  0
    1.5890   -0.2220   -3.2020 C   0  0  0  0  0  0  0  0  0  0  0  0
    1.7700    1.0670   -2.6910 C   0  0  0  0  0  0  0  0  0  0  0  0
   -2.4520   -0.3350   -0.3340 C   0  0  0  0  0  0  0  0  0  0  0  0
   -2.1230   -1.6230    0.1290 C   0  0  0  0  0  0  0  0  0  0  0  0
    1.0230    0.7140   -5.3570 C   0  0  0  0  0  0  0  0  0  0  0  0
    1.2050    2.0000   -4.8470 C   0  0  0  0  0  0  0  0  0  0  0  0
    1.0630   -1.6540   -4.9490 F   0  0  0  0  0  0  0  0  0  0  0  0
    1.5770    2.1790   -3.5140 C   0  0  0  0  0  0  0  0  0  0  0  0
    0.6230    0.5330   -6.7840 C   0  0  0  0  0  0  0  0  0  0  0  0
    3.0330    0.9870   -0.9960 H   0  0  0  0  0  0  0  0  0  0  0  0
   -1.8490    1.6820   -0.8060 H   0  0  0  0  0  0  0  0  0  0  0  0
    1.7380   -1.0820   -2.5660 H   0  0  0  0  0  0  0  0  0  0  0  0
   -3.4740   -0.1420   -0.6230 H   0  0  0  0  0  0  0  0  0  0  0  0
   -2.8490   -2.4190    0.2040 H   0  0  0  0  0  0  0  0  0  0  0  0
    1.0580    2.8590   -5.4850 H   0  0  0  0  0  0  0  0  0  0  0  0
    1.7150    3.1750   -3.1200 H   0  0  0  0  0  0  0  0  0  0  0  0
    0.5290   -0.5310   -7.0030 H   0  0  0  0  0  0  0  0  0  0  0  0
    1.3820    0.9710   -7.4320 H   0  0  0  0  0  0  0  0  0  0  0  0
   -0.3330    1.0260   -6.9590 H   0  0  0  0  0  0  0  0  0  0  0  0
  1  2  1  0  0  0  0
  1  7  1  0  0  0  0
  1  9  2  0  0  0  0
  1 10  2  0  0  0  0
  2  3  1  0  0  0  0
  2 11  2  0  0  0  0
  3  4  1  0  0  0  0
  3  5  2  0  0  0  0
  4  8  2  0  0  0  0
  4 16  1  0  0  0  0
  5  6  1  0  0  0  0
  6  8  1  0  0  0  0
  7 14  1  0  0  0  0
  7 22  1  0  0  0  0
 11 15  1  0  0  0  0
 11 23  1  0  0  0  0
 12 13  2  0  0  0  0
 12 17  1  0  0  0  0
 12 19  1  0  0  0  0
 13 14  1  0  0  0  0
 13 24  1  0  0  0  0
 14 20  2  0  0  0  0
 15 16  2  0  0  0  0
 15 25  1  0  0  0  0
 16 26  1  0  0  0  0
 17 18  2  0  0  0  0
 17 21  1  0  0  0  0
 18 20  1  0  0  0  0
 18 27  1  0  0  0  0
 20 28  1  0  0  0  0
 21 29  1  0  0  0  0
 21 30  1  0  0  0  0
 21 31  1  0  0  0  0
M  END
>  <$CLUSTER>
803

>  <INDEX>
520699

$$$$
Chem T&I AMSACS-28627
  MOE2020           3D

 42 42  0  0  0  0  0  0  0  0999 V2000
   -1.2660    1.1460   -0.4770 S   0  0  0  0  0  0  0  0  0  0  0  0
    0.0200    0.0250   -0.0150 C   0  0  0  0  0  0  0  0  0  0  0  0
    0.4300   -0.9590   -0.9150 C   0  0  0  0  0  0  0  0  0  0  0  0
   -1.0970    2.3580    0.3000 O   0  0  0  0  0  0  0  0  0  0  0  0
   -1.3130    1.1930   -1.9250 O   0  0  0  0  0  0  0  0  0  0  0  0
    1.4640   -1.8240   -0.5570 C   0  0  0  0  0  0  0  0  0  0  0  0
   -2.6300    0.3030    0.0970 N   0  0  0  0  0  0  0  0  0  0  0  0
    2.0840   -1.6990    0.6870 C   0  0  0  0  0  0  0  0  0  0  0  0
    0.6380    0.1630    1.2280 C   0  0  0  0  0  0  0  0  0  0  0  0
    1.6710   -0.7070    1.5770 C   0  0  0  0  0  0  0  0  0  0  0  0
   -4.2370   -1.5140    0.1880 C   0  0  0  0  0  0  0  0  0  0  0  0
   -5.8220   -3.3150    0.2860 O   0  0  0  0  0  0  0  0  0  0  0  0
   -3.0090   -0.9770   -0.5090 C   0  0  0  0  0  0  0  0  0  0  0  0
    1.9140   -2.8890   -1.5040 C   0  0  0  0  0  0  0  0  0  0  0  0
    3.1890   -2.6310    1.0600 C   0  0  0  0  0  0  0  0  0  0  0  0
   -4.6640   -2.8600   -0.4100 C   0  0  0  0  0  0  0  0  0  0  0  0
   -6.2740   -4.5610   -0.2180 C   0  0  0  0  0  0  0  0  0  0  0  0
   -7.2130   -5.1460    0.8580 C   0  0  0  0  0  0  0  0  0  0  0  0
   -7.0490   -4.3970   -1.5250 C   0  0  0  0  0  0  0  0  0  0  0  0
   -0.0480   -1.0500   -1.8790 H   0  0  0  0  0  0  0  0  0  0  0  0
   -3.4210    0.9220   -0.0090 H   0  0  0  0  0  0  0  0  0  0  0  0
    0.3200    0.9350    1.9130 H   0  0  0  0  0  0  0  0  0  0  0  0
    2.1530   -0.6120    2.5390 H   0  0  0  0  0  0  0  0  0  0  0  0
   -5.0520   -0.7990    0.0750 H   0  0  0  0  0  0  0  0  0  0  0  0
   -4.0160   -1.6490    1.2470 H   0  0  0  0  0  0  0  0  0  0  0  0
   -2.1890   -1.6880   -0.4020 H   0  0  0  0  0  0  0  0  0  0  0  0
   -3.2260   -0.8290   -1.5670 H   0  0  0  0  0  0  0  0  0  0  0  0
    1.3220   -2.8370   -2.4180 H   0  0  0  0  0  0  0  0  0  0  0  0
    1.7820   -3.8670   -1.0410 H   0  0  0  0  0  0  0  0  0  0  0  0
    2.9670   -2.7400   -1.7440 H   0  0  0  0  0  0  0  0  0  0  0  0
    3.3670   -3.3300    0.2420 H   0  0  0  0  0  0  0  0  0  0  0  0
    2.9100   -3.1840    1.9570 H   0  0  0  0  0  0  0  0  0  0  0  0
    4.0970   -2.0590    1.2530 H   0  0  0  0  0  0  0  0  0  0  0  0
   -3.8580   -3.5850   -0.2970 H   0  0  0  0  0  0  0  0  0  0  0  0
   -4.8950   -2.7360   -1.4680 H   0  0  0  0  0  0  0  0  0  0  0  0
   -5.4230   -5.2090   -0.4290 H   0  0  0  0  0  0  0  0  0  0  0  0
   -8.0430   -4.4600    1.0280 H   0  0  0  0  0  0  0  0  0  0  0  0
   -6.6600   -5.2850    1.7870 H   0  0  0  0  0  0  0  0  0  0  0  0
   -7.6000   -6.1070    0.5190 H   0  0  0  0  0  0  0  0  0  0  0  0
   -7.9120   -3.7530   -1.3570 H   0  0  0  0  0  0  0  0  0  0  0  0
   -7.3870   -5.3740   -1.8720 H   0  0  0  0  0  0  0  0  0  0  0  0
   -6.4010   -3.9480   -2.2780 H   0  0  0  0  0  0  0  0  0  0  0  0
  1  2  1  0  0  0  0
  1  4  2  0  0  0  0
  1  5  2  0  0  0  0
  1  7  1  0  0  0  0
  2  3  1  0  0  0  0
  2  9  2  0  0  0  0
  3  6  2  0  0  0  0
  3 20  1  0  0  0  0
  6  8  1  0  0  0  0
  6 14  1  0  0  0  0
  7 13  1  0  0  0  0
  7 21  1  0  0  0  0
  8 10  2  0  0  0  0
  8 15  1  0  0  0  0
  9 10  1  0  0  0  0
  9 22  1  0  0  0  0
 10 23  1  0  0  0  0
 11 13  1  0  0  0  0
 11 16  1  0  0  0  0
 11 24  1  0  0  0  0
 11 25  1  0  0  0  0
 12 16  1  0  0  0  0
 12 17  1  0  0  0  0
 13 26  1  0  0  0  0
 13 27  1  0  0  0  0
 14 28  1  0  0  0  0
 14 29  1  0  0  0  0
 14 30  1  0  0  0  0
 15 31  1  0  0  0  0
 15 32  1  0  0  0  0
 15 33  1  0  0  0  0
 16 34  1  0  0  0  0
 16 35  1  0  0  0  0
 17 18  1  0  0  0  0
 17 19  1  0  0  0  0
 17 36  1  0  0  0  0
 18 37  1  0  0  0  0
 18 38  1  0  0  0  0
 18 39  1  0  0  0  0
 19 40  1  0  0  0  0
 19 41  1  0  0  0  0
 19 42  1  0  0  0  0
M  END
>  <$CLUSTER>
804

>  <INDEX>
524752

$$$$
Chem T&I AMSACS-29569
  MOE2020           3D

 50 51  0  0  0  0  0  0  0  0999 V2000
   -1.2660    1.1460   -0.4770 S   0  0  0  0  0  0  0  0  0  0  0  0
   -5.9980   -2.3010    1.7870 S   0  0  0  0  0  0  0  0  0  0  0  0
   -2.6300    0.3030    0.0970 N   0  0  0  0  0  0  0  0  0  0  0  0
   -4.6340   -1.5070    1.2370 N   0  0  0  0  0  0  0  0  0  0  0  0
    0.0200    0.0250   -0.0150 C   0  0  0  0  0  0  0  0  0  0  0  0
   -3.0510   -0.9400   -0.6070 C   0  0  0  0  0  0  0  0  0  0  0  0
   -2.8390    0.1980    1.5680 C   0  0  0  0  0  0  0  0  0  0  0  0
   -4.4520   -1.3640   -0.2160 C   0  0  0  0  0  0  0  0  0  0  0  0
   -4.2480   -0.2560    1.9060 C   0  0  0  0  0  0  0  0  0  0  0  0
    0.4300   -0.9590   -0.9150 C   0  0  0  0  0  0  0  0  0  0  0  0
   -1.0970    2.3580    0.3000 O   0  0  0  0  0  0  0  0  0  0  0  0
   -1.3130    1.1930   -1.9250 O   0  0  0  0  0  0  0  0  0  0  0  0
   -6.1940   -3.5390    1.0270 O   0  0  0  0  0  0  0  0  0  0  0  0
   -5.9780   -2.3770    3.2480 O   0  0  0  0  0  0  0  0  0  0  0  0
    1.4640   -1.8240   -0.5570 C   0  0  0  0  0  0  0  0  0  0  0  0
    0.6380    0.1630    1.2280 C   0  0  0  0  0  0  0  0  0  0  0  0
    2.0840   -1.6990    0.6870 C   0  0  0  0  0  0  0  0  0  0  0  0
    1.6710   -0.7070    1.5770 C   0  0  0  0  0  0  0  0  0  0  0  0
   -7.3230   -1.2040    1.3400 C   0  0  0  0  0  0  0  0  0  0  0  0
    1.9140   -2.8890   -1.5040 C   0  0  0  0  0  0  0  0  0  0  0  0
    3.1890   -2.6310    1.0600 C   0  0  0  0  0  0  0  0  0  0  0  0
   -8.6730   -1.6840    1.7230 C   0  0  0  0  0  0  0  0  0  0  0  0
   -9.7930   -0.7470    1.3400 C   0  0  0  0  0  0  0  0  0  0  0  0
  -11.1630   -1.2540    1.7380 C   0  0  0  0  0  0  0  0  0  0  0  0
   -2.3570   -1.7410   -0.3530 H   0  0  0  0  0  0  0  0  0  0  0  0
   -3.0240   -0.7630   -1.6820 H   0  0  0  0  0  0  0  0  0  0  0  0
   -2.6650    1.1750    2.0200 H   0  0  0  0  0  0  0  0  0  0  0  0
   -2.1290   -0.5220    1.9750 H   0  0  0  0  0  0  0  0  0  0  0  0
   -5.1540   -0.6140   -0.5800 H   0  0  0  0  0  0  0  0  0  0  0  0
   -4.6670   -2.3230   -0.6870 H   0  0  0  0  0  0  0  0  0  0  0  0
   -4.3140   -0.4060    2.9840 H   0  0  0  0  0  0  0  0  0  0  0  0
   -4.9450    0.5260    1.6050 H   0  0  0  0  0  0  0  0  0  0  0  0
   -0.0480   -1.0500   -1.8790 H   0  0  0  0  0  0  0  0  0  0  0  0
    0.3200    0.9350    1.9130 H   0  0  0  0  0  0  0  0  0  0  0  0
    2.1530   -0.6120    2.5390 H   0  0  0  0  0  0  0  0  0  0  0  0
   -7.3030   -1.0690    0.2590 H   0  0  0  0  0  0  0  0  0  0  0  0
   -7.1510   -0.2450    1.8290 H   0  0  0  0  0  0  0  0  0  0  0  0
    1.3220   -2.8370   -2.4180 H   0  0  0  0  0  0  0  0  0  0  0  0
    1.7820   -3.8670   -1.0410 H   0  0  0  0  0  0  0  0  0  0  0  0
    2.9670   -2.7400   -1.7440 H   0  0  0  0  0  0  0  0  0  0  0  0
    3.3670   -3.3300    0.2420 H   0  0  0  0  0  0  0  0  0  0  0  0
    2.9100   -3.1840    1.9570 H   0  0  0  0  0  0  0  0  0  0  0  0
    4.0970   -2.0590    1.2530 H   0  0  0  0  0  0  0  0  0  0  0  0
   -8.6940   -1.8190    2.8040 H   0  0  0  0  0  0  0  0  0  0  0  0
   -8.8470   -2.6430    1.2340 H   0  0  0  0  0  0  0  0  0  0  0  0
   -9.7750   -0.6110    0.2590 H   0  0  0  0  0  0  0  0  0  0  0  0
   -9.6240    0.2120    1.8290 H   0  0  0  0  0  0  0  0  0  0  0  0
  -11.3490   -2.2140    1.2570 H   0  0  0  0  0  0  0  0  0  0  0  0
  -11.9210   -0.5370    1.4240 H   0  0  0  0  0  0  0  0  0  0  0  0
  -11.2050   -1.3760    2.8200 H   0  0  0  0  0  0  0  0  0  0  0  0
  1  3  1  0  0  0  0
  1  5  1  0  0  0  0
  1 11  2  0  0  0  0
  1 12  2  0  0  0  0
  2  4  1  0  0  0  0
  2 13  2  0  0  0  0
  2 14  2  0  0  0  0
  2 19  1  0  0  0  0
  3  6  1  0  0  0  0
  3  7  1  0  0  0  0
  4  8  1  0  0  0  0
  4  9  1  0  0  0  0
  5 10  2  0  0  0  0
  5 16  1  0  0  0  0
  6  8  1  0  0  0  0
  6 25  1  0  0  0  0
  6 26  1  0  0  0  0
  7  9  1  0  0  0  0
  7 27  1  0  0  0  0
  7 28  1  0  0  0  0
  8 29  1  0  0  0  0
  8 30  1  0  0  0  0
  9 31  1  0  0  0  0
  9 32  1  0  0  0  0
 10 15  1  0  0  0  0
 10 33  1  0  0  0  0
 15 17  2  0  0  0  0
 15 20  1  0  0  0  0
 16 18  2  0  0  0  0
 16 34  1  0  0  0  0
 17 18  1  0  0  0  0
 17 21  1  0  0  0  0
 18 35  1  0  0  0  0
 19 22  1  0  0  0  0
 19 36  1  0  0  0  0
 19 37  1  0  0  0  0
 20 38  1  0  0  0  0
 20 39  1  0  0  0  0
 20 40  1  0  0  0  0
 21 41  1  0  0  0  0
 21 42  1  0  0  0  0
 21 43  1  0  0  0  0
 22 23  1  0  0  0  0
 22 44  1  0  0  0  0
 22 45  1  0  0  0  0
 23 24  1  0  0  0  0
 23 46  1  0  0  0  0
 23 47  1  0  0  0  0
 24 48  1  0  0  0  0
 24 49  1  0  0  0  0
 24 50  1  0  0  0  0
M  END
>  <$CLUSTER>
805

>  <INDEX>
525053

$$$$
Maybridge KM 09574
  MOE2020           3D

 27 29  0  0  0  0  0  0  0  0999 V2000
    0.4580    0.1480    0.6140 C   0  0  0  0  0  0  0  0  0  0  0  0
   -1.7650    0.8290    1.0480 C   0  0  0  0  0  0  0  0  0  0  0  0
    0.0520   -0.2920   -0.7150 C   0  0  0  0  0  0  0  0  0  0  0  0
   -0.4470    0.7200    1.5270 C   0  0  0  0  0  0  0  0  0  0  0  0
   -2.8280    1.4170    1.9330 C   0  0  0  0  0  0  0  0  0  0  0  0
    2.1750   -0.6680   -0.4410 O   0  0  0  0  0  0  0  0  0  0  0  0
    1.7670   -0.0960    0.7530 N   0  0  0  0  0  0  0  0  0  0  0  0
    1.1280   -0.7880   -1.3380 N   0  0  0  0  0  0  0  0  0  0  0  0
   -2.1610    0.4010   -0.2470 C   0  0  0  0  0  0  0  0  0  0  0  0
   -1.2730   -0.1740   -1.1750 C   0  0  0  0  0  0  0  0  0  0  0  0
   -2.3940    2.2940    2.9030 N   0  0  0  0  0  0  0  0  0  0  0  0
   -4.0110    1.1240    1.7770 O   0  0  0  0  0  0  0  0  0  0  0  0
   -3.0650    3.0120    3.8740 C   0  0  0  0  0  0  0  0  0  0  0  0
   -4.3240    4.5180    5.8840 C   0  0  0  0  0  0  0  0  0  0  0  0
   -5.0790    5.4330    7.1030 Cl  0  0  0  0  0  0  0  0  0  0  0  0
   -4.4520    2.9540    4.0370 C   0  0  0  0  0  0  0  0  0  0  0  0
   -2.3170    3.8350    4.7300 C   0  0  0  0  0  0  0  0  0  0  0  0
   -5.0760    3.7050    5.0380 C   0  0  0  0  0  0  0  0  0  0  0  0
   -2.9420    4.5830    5.7280 C   0  0  0  0  0  0  0  0  0  0  0  0
   -0.1540    1.0480    2.5130 H   0  0  0  0  0  0  0  0  0  0  0  0
   -3.1950    0.5230   -0.5340 H   0  0  0  0  0  0  0  0  0  0  0  0
   -1.5820   -0.4980   -2.1580 H   0  0  0  0  0  0  0  0  0  0  0  0
   -1.3950    2.4400    2.9040 H   0  0  0  0  0  0  0  0  0  0  0  0
   -5.0440    2.3270    3.3870 H   0  0  0  0  0  0  0  0  0  0  0  0
   -1.2450    3.8900    4.6150 H   0  0  0  0  0  0  0  0  0  0  0  0
   -6.1480    3.6550    5.1560 H   0  0  0  0  0  0  0  0  0  0  0  0
   -2.3540    5.2120    6.3800 H   0  0  0  0  0  0  0  0  0  0  0  0
  1  3  1  0  0  0  0
  1  4  1  0  0  0  0
  1  7  2  0  0  0  0
  2  4  2  0  0  0  0
  2  5  1  0  0  0  0
  2  9  1  0  0  0  0
  3  8  2  0  0  0  0
  3 10  1  0  0  0  0
  4 20  1  0  0  0  0
  5 11  1  0  0  0  0
  5 12  2  0  0  0  0
  6  7  1  0  0  0  0
  6  8  1  0  0  0  0
  9 10  2  0  0  0  0
  9 21  1  0  0  0  0
 10 22  1  0  0  0  0
 11 13  1  0  0  0  0
 11 23  1  0  0  0  0
 13 16  2  0  0  0  0
 13 17  1  0  0  0  0
 14 15  1  0  0  0  0
 14 18  2  0  0  0  0
 14 19  1  0  0  0  0
 16 18  1  0  0  0  0
 16 24  1  0  0  0  0
 17 19  2  0  0  0  0
 17 25  1  0  0  0  0
 18 26  1  0  0  0  0
 19 27  1  0  0  0  0
M  END
>  <$CLUSTER>
806

>  <INDEX>
557149

$$$$
Bionet 3J-305S
  MOE2020           3D

 34 35  0  0  1  0  0  0  0  0999 V2000
    1.1890   -0.1720    0.4910 C   0  0  0  0  0  0  0  0  0  0  0  0
    0.0940   -0.4870   -0.2960 N   0  0  0  0  0  0  0  0  0  0  0  0
   -1.1880    0.2000   -0.1830 C   0  0  3  0  0  0  0  0  0  0  0  0
    2.3880   -1.0210    0.1680 C   0  0  0  0  0  0  0  0  0  0  0  0
   -1.2070    1.4340   -1.0810 C   0  0  0  0  0  0  0  0  0  0  0  0
    3.4880   -3.0220   -0.5780 C   0  0  0  0  0  0  0  0  0  0  0  0
    2.3210   -2.2920   -0.3400 C   0  0  0  0  0  0  0  0  0  0  0  0
    4.7340   -2.4710   -0.2820 C   0  0  0  0  0  0  0  0  0  0  0  0
    1.2240    0.7030    1.3520 O   0  0  0  0  0  0  0  0  0  0  0  0
   -2.3280   -0.7490   -0.5350 C   0  0  0  0  0  0  0  0  0  0  0  0
   -1.7560    1.4020   -2.2360 O   0  0  0  0  0  0  0  0  0  0  0  0
    3.6520   -0.4560    0.4990 C   0  0  0  0  0  0  0  0  0  0  0  0
    4.8160   -1.1900    0.2590 C   0  0  0  0  0  0  0  0  0  0  0  0
    3.4020   -4.5930   -1.2330 Cl  0  0  0  0  0  0  0  0  0  0  0  0
   -0.6540    2.5140   -0.5920 O   0  5  0  0  0  0  0  0  0  0  0  0
    6.1440   -3.3740   -0.5850 Cl  0  0  0  0  0  0  0  0  0  0  0  0
   -3.7220   -0.1860   -0.3360 C   0  0  0  0  0  0  0  0  0  0  0  0
   -4.3300    0.5380   -1.3590 C   0  0  0  0  0  0  0  0  0  0  0  0
   -4.3400   -0.2910    0.9080 C   0  0  0  0  0  0  0  0  0  0  0  0
   -5.5990    0.2760    1.1080 C   0  0  0  0  0  0  0  0  0  0  0  0
   -5.5890    1.1050   -1.1570 C   0  0  0  0  0  0  0  0  0  0  0  0
   -6.2230    0.9730    0.0770 C   0  0  0  0  0  0  0  0  0  0  0  0
    0.1870   -1.2250   -0.9790 H   0  0  0  0  0  0  0  0  0  0  0  0
   -1.3240    0.5270    0.8480 H   0  0  0  0  0  0  0  0  0  0  0  0
    1.3590   -2.7320   -0.5580 H   0  0  0  0  0  0  0  0  0  0  0  0
   -2.2310   -1.6380    0.0880 H   0  0  0  0  0  0  0  0  0  0  0  0
   -2.2230   -1.0270   -1.5840 H   0  0  0  0  0  0  0  0  0  0  0  0
    3.7110    0.5320    0.9320 H   0  0  0  0  0  0  0  0  0  0  0  0
    5.7800   -0.7640    0.4930 H   0  0  0  0  0  0  0  0  0  0  0  0
   -3.8280    0.6600   -2.3070 H   0  0  0  0  0  0  0  0  0  0  0  0
   -3.8460   -0.8100    1.7160 H   0  0  0  0  0  0  0  0  0  0  0  0
   -6.0900    0.1740    2.0640 H   0  0  0  0  0  0  0  0  0  0  0  0
   -6.0720    1.6460   -1.9570 H   0  0  0  0  0  0  0  0  0  0  0  0
   -7.1980    1.4110    0.2330 H   0  0  0  0  0  0  0  0  0  0  0  0
  1  2  1  0  0  0  0
  1  4  1  0  0  0  0
  1  9  2  0  0  0  0
  2  3  1  0  0  0  0
  2 23  1  0  0  0  0
  3  5  1  0  0  0  0
  3 10  1  0  0  0  0
  3 24  1  0  0  0  0
  4  7  2  0  0  0  0
  4 12  1  0  0  0  0
  5 11  2  0  0  0  0
  5 15  1  0  0  0  0
  6  7  1  0  0  0  0
  6  8  2  0  0  0  0
  6 14  1  0  0  0  0
  7 25  1  0  0  0  0
  8 13  1  0  0  0  0
  8 16  1  0  0  0  0
 10 17  1  0  0  0  0
 10 26  1  0  0  0  0
 10 27  1  0  0  0  0
 12 13  2  0  0  0  0
 12 28  1  0  0  0  0
 13 29  1  0  0  0  0
 17 18  1  0  0  0  0
 17 19  2  0  0  0  0
 18 21  2  0  0  0  0
 18 30  1  0  0  0  0
 19 20  1  0  0  0  0
 19 31  1  0  0  0  0
 20 22  2  0  0  0  0
 20 32  1  0  0  0  0
 21 22  1  0  0  0  0
 21 33  1  0  0  0  0
 22 34  1  0  0  0  0
M  CHG  1  15  -1
M  END
>  <$CLUSTER>
807

>  <INDEX>
31462

$$$$
Chembridge 6939248
  MOE2020           3D

 38 40  0  0  1  0  0  0  0  0999 V2000
    1.1890   -0.1720    0.4910 C   0  0  0  0  0  0  0  0  0  0  0  0
    0.0940   -0.4870   -0.2960 N   0  0  0  0  0  0  0  0  0  0  0  0
   -0.9070    2.5140   -3.2480 C   0  0  0  0  0  0  0  0  0  0  0  0
   -1.2070    1.4340   -1.0810 C   0  0  0  0  0  0  0  0  0  0  0  0
    2.3880   -1.0210    0.1680 C   0  0  0  0  0  0  0  0  0  0  0  0
   -0.8450    1.3790   -2.4360 C   0  0  0  0  0  0  0  0  0  0  0  0
   -1.1880    0.2000   -0.1830 C   0  0  3  0  0  0  0  0  0  0  0  0
   -1.3440    3.7280   -2.7180 C   0  0  0  0  0  0  0  0  0  0  0  0
   -0.4890    2.3590   -4.5610 O   0  0  0  0  0  0  0  0  0  0  0  0
    1.2240    0.7030    1.3520 O   0  0  0  0  0  0  0  0  0  0  0  0
   -1.4690    4.8840   -3.4640 O   0  0  0  0  0  0  0  0  0  0  0  0
    3.6520   -0.4560    0.4990 C   0  0  0  0  0  0  0  0  0  0  0  0
   -1.6560    2.6710   -0.5630 C   0  0  0  0  0  0  0  0  0  0  0  0
   -1.7180    3.8070   -1.3770 C   0  0  0  0  0  0  0  0  0  0  0  0
    4.8160   -1.1900    0.2590 C   0  0  0  0  0  0  0  0  0  0  0  0
    6.0430   -0.7360    0.5180 F   0  0  0  0  0  0  0  0  0  0  0  0
    2.3210   -2.2920   -0.3400 C   0  0  0  0  0  0  0  0  0  0  0  0
    3.4880   -3.0220   -0.5780 C   0  0  0  0  0  0  0  0  0  0  0  0
   -0.2640    3.6380   -5.1820 C   0  0  0  0  0  0  0  0  0  0  0  0
   -1.4040    4.6000   -4.8730 C   0  0  0  0  0  0  0  0  0  0  0  0
   -2.3280   -0.7490   -0.5350 C   0  0  0  0  0  0  0  0  0  0  0  0
    4.7340   -2.4710   -0.2820 C   0  0  0  0  0  0  0  0  0  0  0  0
    0.1870   -1.2250   -0.9790 H   0  0  0  0  0  0  0  0  0  0  0  0
   -0.5130    0.4420   -2.8580 H   0  0  0  0  0  0  0  0  0  0  0  0
   -1.3240    0.5270    0.8480 H   0  0  0  0  0  0  0  0  0  0  0  0
    3.7110    0.5320    0.9320 H   0  0  0  0  0  0  0  0  0  0  0  0
   -1.9540    2.7390    0.4730 H   0  0  0  0  0  0  0  0  0  0  0  0
   -2.0560    4.7470   -0.9660 H   0  0  0  0  0  0  0  0  0  0  0  0
    1.3590   -2.7320   -0.5580 H   0  0  0  0  0  0  0  0  0  0  0  0
    3.4250   -4.0170   -0.9930 H   0  0  0  0  0  0  0  0  0  0  0  0
   -0.1930    3.5030   -6.2610 H   0  0  0  0  0  0  0  0  0  0  0  0
    0.6690    4.0580   -4.8060 H   0  0  0  0  0  0  0  0  0  0  0  0
   -1.2430    5.5300   -5.4170 H   0  0  0  0  0  0  0  0  0  0  0  0
   -2.3450    4.1510   -5.1900 H   0  0  0  0  0  0  0  0  0  0  0  0
   -2.2120   -1.0900   -1.5640 H   0  0  0  0  0  0  0  0  0  0  0  0
   -3.2800   -0.2280   -0.4300 H   0  0  0  0  0  0  0  0  0  0  0  0
   -2.3070   -1.6070    0.1370 H   0  0  0  0  0  0  0  0  0  0  0  0
    5.6340   -3.0370   -0.4720 H   0  0  0  0  0  0  0  0  0  0  0  0
  1  2  1  0  0  0  0
  1  5  1  0  0  0  0
  1 10  2  0  0  0  0
  2  7  1  0  0  0  0
  2 23  1  0  0  0  0
  3  6  2  0  0  0  0
  3  8  1  0  0  0  0
  3  9  1  0  0  0  0
  4  6  1  0  0  0  0
  4  7  1  0  0  0  0
  4 13  2  0  0  0  0
  5 12  2  0  0  0  0
  5 17  1  0  0  0  0
  6 24  1  0  0  0  0
  7 21  1  0  0  0  0
  7 25  1  0  0  0  0
  8 11  1  0  0  0  0
  8 14  2  0  0  0  0
  9 19  1  0  0  0  0
 11 20  1  0  0  0  0
 12 15  1  0  0  0  0
 12 26  1  0  0  0  0
 13 14  1  0  0  0  0
 13 27  1  0  0  0  0
 14 28  1  0  0  0  0
 15 16  1  0  0  0  0
 15 22  2  0  0  0  0
 17 18  2  0  0  0  0
 17 29  1  0  0  0  0
 18 22  1  0  0  0  0
 18 30  1  0  0  0  0
 19 20  1  0  0  0  0
 19 31  1  0  0  0  0
 19 32  1  0  0  0  0
 20 33  1  0  0  0  0
 20 34  1  0  0  0  0
 21 35  1  0  0  0  0
 21 36  1  0  0  0  0
 21 37  1  0  0  0  0
 22 38  1  0  0  0  0
M  END
>  <$CLUSTER>
808

>  <INDEX>
69687

$$$$
Chembridge 7185734
  MOE2020           3D

 46 48  0  0  0  0  0  0  0  0999 V2000
    1.3810   -1.2760   -0.9620 C   0  0  0  0  0  0  0  0  0  0  0  0
   -0.0040   -0.8620   -0.6460 C   0  0  0  0  0  0  0  0  0  0  0  0
    0.7580    2.1980    1.4210 C   0  0  0  0  0  0  0  0  0  0  0  0
    0.8110    1.0500    0.6400 N   0  0  0  0  0  0  0  0  0  0  0  0
   -0.2720    0.2920    0.1220 C   0  0  0  0  0  0  0  0  0  0  0  0
    1.6490   -2.6200   -0.8230 N   0  0  0  0  0  0  0  0  0  0  0  0
    2.1440    2.6910    1.7560 C   0  0  0  0  0  0  0  0  0  0  0  0
    2.2130   -0.4450   -1.3100 O   0  0  0  0  0  0  0  0  0  0  0  0
   -0.2340    2.7930    1.8290 O   0  0  0  0  0  0  0  0  0  0  0  0
    2.2520    4.0810    2.0690 C   0  0  0  0  0  0  0  0  0  0  0  0
    3.2620    1.8950    1.8410 C   0  0  0  0  0  0  0  0  0  0  0  0
    4.6190    3.7970    2.4710 C   0  0  0  0  0  0  0  0  0  0  0  0
    2.9240   -3.2410   -1.0670 C   0  0  0  0  0  0  0  0  0  0  0  0
    3.4950    4.6180    2.4140 C   0  0  0  0  0  0  0  0  0  0  0  0
    4.5020    2.4380    2.1880 C   0  0  0  0  0  0  0  0  0  0  0  0
    5.7660    4.3900    2.8040 F   0  0  0  0  0  0  0  0  0  0  0  0
   -1.0540   -1.6350   -1.1650 C   0  0  0  0  0  0  0  0  0  0  0  0
   -1.6110    0.6330    0.3570 C   0  0  0  0  0  0  0  0  0  0  0  0
    3.7800   -3.2040    0.1960 C   0  0  0  0  0  0  0  0  0  0  0  0
    2.7400   -4.6720   -1.5600 C   0  0  0  0  0  0  0  0  0  0  0  0
   -2.3760   -1.2770   -0.9160 C   0  0  0  0  0  0  0  0  0  0  0  0
   -2.6530   -0.1460   -0.1570 C   0  0  0  0  0  0  0  0  0  0  0  0
    4.0760   -5.3870   -1.7630 C   0  0  0  0  0  0  0  0  0  0  0  0
    5.1220   -3.9130    0.0010 C   0  0  0  0  0  0  0  0  0  0  0  0
    4.9320   -5.3410   -0.5010 C   0  0  0  0  0  0  0  0  0  0  0  0
    1.7350    0.7130    0.4120 H   0  0  0  0  0  0  0  0  0  0  0  0
    0.8900   -3.2170   -0.5260 H   0  0  0  0  0  0  0  0  0  0  0  0
    1.3770    4.7140    2.0390 H   0  0  0  0  0  0  0  0  0  0  0  0
    3.1810    0.8380    1.6370 H   0  0  0  0  0  0  0  0  0  0  0  0
    3.4400   -2.6820   -1.8470 H   0  0  0  0  0  0  0  0  0  0  0  0
    3.5840    5.6710    2.6370 H   0  0  0  0  0  0  0  0  0  0  0  0
    5.3730    1.8010    2.2370 H   0  0  0  0  0  0  0  0  0  0  0  0
   -0.8360   -2.5100   -1.7590 H   0  0  0  0  0  0  0  0  0  0  0  0
   -1.8420    1.5100    0.9440 H   0  0  0  0  0  0  0  0  0  0  0  0
    3.2370   -3.6950    1.0040 H   0  0  0  0  0  0  0  0  0  0  0  0
    3.9670   -2.1640    0.4640 H   0  0  0  0  0  0  0  0  0  0  0  0
    2.2050   -4.6510   -2.5090 H   0  0  0  0  0  0  0  0  0  0  0  0
    2.1540   -5.2240   -0.8250 H   0  0  0  0  0  0  0  0  0  0  0  0
   -3.1830   -1.8760   -1.3110 H   0  0  0  0  0  0  0  0  0  0  0  0
   -3.6780    0.1330    0.0370 H   0  0  0  0  0  0  0  0  0  0  0  0
    4.6170   -4.9030   -2.5760 H   0  0  0  0  0  0  0  0  0  0  0  0
    3.8850   -6.4280   -2.0230 H   0  0  0  0  0  0  0  0  0  0  0  0
    5.6500   -3.9400    0.9540 H   0  0  0  0  0  0  0  0  0  0  0  0
    5.7140   -3.3580   -0.7270 H   0  0  0  0  0  0  0  0  0  0  0  0
    5.9090   -5.7710   -0.7210 H   0  0  0  0  0  0  0  0  0  0  0  0
    4.4440   -5.9270    0.2780 H   0  0  0  0  0  0  0  0  0  0  0  0
  1  2  1  0  0  0  0
  1  6  1  0  0  0  0
  1  8  2  0  0  0  0
  2  5  2  0  0  0  0
  2 17  1  0  0  0  0
  3  4  1  0  0  0  0
  3  7  1  0  0  0  0
  3  9  2  0  0  0  0
  4  5  1  0  0  0  0
  4 26  1  0  0  0  0
  5 18  1  0  0  0  0
  6 13  1  0  0  0  0
  6 27  1  0  0  0  0
  7 10  2  0  0  0  0
  7 11  1  0  0  0  0
 10 14  1  0  0  0  0
 10 28  1  0  0  0  0
 11 15  2  0  0  0  0
 11 29  1  0  0  0  0
 12 14  2  0  0  0  0
 12 15  1  0  0  0  0
 12 16  1  0  0  0  0
 13 19  1  0  0  0  0
 13 20  1  0  0  0  0
 13 30  1  0  0  0  0
 14 31  1  0  0  0  0
 15 32  1  0  0  0  0
 17 21  2  0  0  0  0
 17 33  1  0  0  0  0
 18 22  2  0  0  0  0
 18 34  1  0  0  0  0
 19 24  1  0  0  0  0
 19 35  1  0  0  0  0
 19 36  1  0  0  0  0
 20 23  1  0  0  0  0
 20 37  1  0  0  0  0
 20 38  1  0  0  0  0
 21 22  1  0  0  0  0
 21 39  1  0  0  0  0
 22 40  1  0  0  0  0
 23 25  1  0  0  0  0
 23 41  1  0  0  0  0
 23 42  1  0  0  0  0
 24 25  1  0  0  0  0
 24 43  1  0  0  0  0
 24 44  1  0  0  0  0
 25 45  1  0  0  0  0
 25 46  1  0  0  0  0
M  END
>  <$CLUSTER>
809

>  <INDEX>
75225

$$$$
Specs AN-465/40743444
  MOE2020           3D

 50 52  0  0  0  0  0  0  0  0999 V2000
   -5.4490   -4.8290    2.1760 C   0  0  0  0  0  0  0  0  0  0  0  0
   -6.9550   -6.4980    2.2020 N   0  0  0  0  0  0  0  0  0  0  0  0
   -6.4260   -5.5480    3.0520 C   0  0  0  0  0  0  0  0  0  0  0  0
   -6.4510   -6.4750    0.9250 N   0  0  0  0  0  0  0  0  0  0  0  0
   -5.5770   -5.5120    0.8960 C   0  0  0  0  0  0  0  0  0  0  0  0
   -4.7350   -3.8190    2.6820 C   0  0  0  0  0  0  0  0  0  0  0  0
   -7.9510   -7.5090    2.4360 C   0  0  0  0  0  0  0  0  0  0  0  0
  -10.9150  -10.5390    3.0880 C   0  0  0  0  0  0  0  0  0  0  0  0
    0.9640    0.7460   -0.2300 C   0  0  0  0  0  0  0  0  0  0  0  0
    1.6920    1.3740   -0.9480 C   0  0  0  0  0  0  0  0  0  0  0  0
   -6.6790   -5.3350    4.2260 O   0  0  0  0  0  0  0  0  0  0  0  0
   -2.8220   -2.0880   -0.1070 C   0  0  0  0  0  0  0  0  0  0  0  0
   -9.9050   -9.4930    2.8960 C   0  0  0  0  0  0  0  0  0  0  0  0
   -3.7300   -3.0100    1.9430 C   0  0  0  0  0  0  0  0  0  0  0  0
   -3.7720   -2.8750    0.5550 C   0  0  0  0  0  0  0  0  0  0  0  0
   -1.8130   -1.4300    0.6660 C   0  0  0  0  0  0  0  0  0  0  0  0
  -11.2790  -11.3130    2.2140 O   0  0  0  0  0  0  0  0  0  0  0  0
   -8.5540   -7.6500    3.6940 C   0  0  0  0  0  0  0  0  0  0  0  0
   -8.3510   -8.3870    1.4130 C   0  0  0  0  0  0  0  0  0  0  0  0
   -9.3190   -9.3700    1.6410 C   0  0  0  0  0  0  0  0  0  0  0  0
   -9.5230   -8.6340    3.9210 C   0  0  0  0  0  0  0  0  0  0  0  0
   -1.7890   -1.5760    2.0300 C   0  0  0  0  0  0  0  0  0  0  0  0
   -2.7420   -2.3630    2.6780 C   0  0  0  0  0  0  0  0  0  0  0  0
  -11.4000  -10.5460    4.3500 O   0  0  0  0  0  0  0  0  0  0  0  0
   -2.7800   -1.8930   -1.4660 O   0  0  0  0  0  0  0  0  0  0  0  0
   -0.9210   -0.6690   -0.1370 O   0  0  0  0  0  0  0  0  0  0  0  0
   -4.8040   -5.1670   -0.3280 C   0  0  0  0  0  0  0  0  0  0  0  0
    0.0770   -0.0210    0.6490 C   0  0  0  0  0  0  0  0  0  0  0  0
  -12.3890  -11.5140    4.6710 C   0  0  0  0  0  0  0  0  0  0  0  0
   -3.7760   -2.5400   -2.2490 C   0  0  0  0  0  0  0  0  0  0  0  0
   -4.9030   -3.5680    3.7190 H   0  0  0  0  0  0  0  0  0  0  0  0
    2.3380    1.9310   -1.5850 H   0  0  0  0  0  0  0  0  0  0  0  0
   -4.5410   -3.3800   -0.0110 H   0  0  0  0  0  0  0  0  0  0  0  0
   -8.2670   -6.9900    4.4990 H   0  0  0  0  0  0  0  0  0  0  0  0
   -7.9030   -8.3010    0.4340 H   0  0  0  0  0  0  0  0  0  0  0  0
   -9.6120  -10.0340    0.8410 H   0  0  0  0  0  0  0  0  0  0  0  0
   -9.9760   -8.7270    4.8970 H   0  0  0  0  0  0  0  0  0  0  0  0
   -1.0250   -1.0770    2.6080 H   0  0  0  0  0  0  0  0  0  0  0  0
   -2.7120   -2.4700    3.7520 H   0  0  0  0  0  0  0  0  0  0  0  0
   -4.1370   -4.3320   -0.1130 H   0  0  0  0  0  0  0  0  0  0  0  0
   -5.4920   -4.8870   -1.1250 H   0  0  0  0  0  0  0  0  0  0  0  0
   -4.2170   -6.0300   -0.6420 H   0  0  0  0  0  0  0  0  0  0  0  0
   -0.4010    0.6520    1.3610 H   0  0  0  0  0  0  0  0  0  0  0  0
    0.6580   -0.7690    1.1890 H   0  0  0  0  0  0  0  0  0  0  0  0
  -12.6830  -11.4010    5.7140 H   0  0  0  0  0  0  0  0  0  0  0  0
  -11.9830  -12.5140    4.5140 H   0  0  0  0  0  0  0  0  0  0  0  0
  -13.2590  -11.3710    4.0300 H   0  0  0  0  0  0  0  0  0  0  0  0
   -3.6240   -2.3000   -3.3010 H   0  0  0  0  0  0  0  0  0  0  0  0
   -4.7630   -2.1970   -1.9370 H   0  0  0  0  0  0  0  0  0  0  0  0
   -3.7050   -3.6190   -2.1080 H   0  0  0  0  0  0  0  0  0  0  0  0
  1  3  1  0  0  0  0
  1  5  1  0  0  0  0
  1  6  2  0  0  0  0
  2  3  1  0  0  0  0
  2  4  1  0  0  0  0
  2  7  1  0  0  0  0
  3 11  2  0  0  0  0
  4  5  2  0  0  0  0
  5 27  1  0  0  0  0
  6 14  1  0  0  0  0
  6 31  1  0  0  0  0
  7 18  1  0  0  0  0
  7 19  2  0  0  0  0
  8 13  1  0  0  0  0
  8 17  2  0  0  0  0
  8 24  1  0  0  0  0
  9 10  3  0  0  0  0
  9 28  1  0  0  0  0
 10 32  1  0  0  0  0
 12 15  1  0  0  0  0
 12 16  2  0  0  0  0
 12 25  1  0  0  0  0
 13 20  2  0  0  0  0
 13 21  1  0  0  0  0
 14 15  2  0  0  0  0
 14 23  1  0  0  0  0
 15 33  1  0  0  0  0
 16 22  1  0  0  0  0
 16 26  1  0  0  0  0
 18 21  2  0  0  0  0
 18 34  1  0  0  0  0
 19 20  1  0  0  0  0
 19 35  1  0  0  0  0
 20 36  1  0  0  0  0
 21 37  1  0  0  0  0
 22 23  2  0  0  0  0
 22 38  1  0  0  0  0
 23 39  1  0  0  0  0
 24 29  1  0  0  0  0
 25 30  1  0  0  0  0
 26 28  1  0  0  0  0
 27 40  1  0  0  0  0
 27 41  1  0  0  0  0
 27 42  1  0  0  0  0
 28 43  1  0  0  0  0
 28 44  1  0  0  0  0
 29 45  1  0  0  0  0
 29 46  1  0  0  0  0
 29 47  1  0  0  0  0
 30 48  1  0  0  0  0
 30 49  1  0  0  0  0
 30 50  1  0  0  0  0
M  END
>  <$CLUSTER>
810

>  <INDEX>
525974

$$$$
Specs AK-777/36505031
  MOE2020           3D

 42 44  0  0  1  0  0  0  0  0999 V2000
   -0.3550   -0.3150    1.3740 C   0  0  0  0  0  0  0  0  0  0  0  0
   -1.9680    1.4960    2.0830 C   0  0  0  0  0  0  0  0  0  0  0  0
   -1.3030    0.3620    2.3450 C   0  0  0  0  0  0  0  0  0  0  0  0
   -1.8250    2.2330    0.8440 C   0  0  0  0  0  0  0  0  0  0  0  0
   -0.5740    0.2240   -0.0920 C   0  0  3  0  0  0  0  0  0  0  0  0
   -0.7300    1.7810   -0.1170 C   0  0  3  0  0  0  0  0  0  0  0  0
   -2.6450    3.2640    0.5700 C   0  0  0  0  0  0  0  0  0  0  0  0
    0.4540   -0.3220   -1.0880 C   0  0  0  0  0  0  0  0  0  0  0  0
    1.0130   -0.0460    1.8780 C   0  0  0  0  0  0  0  0  0  0  0  0
   -0.6520   -1.7690    1.4150 C   0  0  0  0  0  0  0  0  0  0  0  0
   -2.8680    1.9930    3.0990 C   0  0  0  0  0  0  0  0  0  0  0  0
    2.0800    0.1650    2.2820 N   0  0  0  0  0  0  0  0  0  0  0  0
   -0.8850   -2.9060    1.4450 N   0  0  0  0  0  0  0  0  0  0  0  0
   -3.5950    2.4060    3.9040 N   0  0  0  0  0  0  0  0  0  0  0  0
   -0.9990    2.3130   -1.5470 C   0  0  0  0  0  0  0  0  0  0  0  0
    0.1200   -1.4320   -1.8830 C   0  0  0  0  0  0  0  0  0  0  0  0
   -1.4380   -0.2980    3.5630 N   0  0  0  0  0  0  0  0  0  0  0  0
   -2.5870    4.0720   -0.6910 C   0  0  0  0  0  0  0  0  0  0  0  0
    1.0350   -1.9620   -2.7950 C   0  0  0  0  0  0  0  0  0  0  0  0
   -1.3250    3.8120   -1.5230 C   0  0  3  0  0  0  0  0  0  0  0  0
    0.5420   -3.4260   -3.8170 Br  0  0  0  0  0  0  0  0  0  0  0  0
    1.7320    0.2390   -1.2360 C   0  0  0  0  0  0  0  0  0  0  0  0
    2.6460   -0.2920   -2.1490 C   0  0  0  0  0  0  0  0  0  0  0  0
    2.2980   -1.3920   -2.9280 C   0  0  0  0  0  0  0  0  0  0  0  0
   -1.4860    4.3650   -2.9380 C   0  0  0  0  0  0  0  0  0  0  0  0
   -1.5260   -0.1740   -0.4450 H   0  0  0  0  0  0  0  0  0  0  0  0
    0.2170    2.2060    0.2140 H   0  0  0  0  0  0  0  0  0  0  0  0
   -3.3920    3.5260    1.3050 H   0  0  0  0  0  0  0  0  0  0  0  0
   -1.8420    1.7720   -1.9760 H   0  0  0  0  0  0  0  0  0  0  0  0
   -0.1130    2.1510   -2.1600 H   0  0  0  0  0  0  0  0  0  0  0  0
   -0.8580   -1.8810   -1.7870 H   0  0  0  0  0  0  0  0  0  0  0  0
   -2.0490    0.0760    4.2750 H   0  0  0  0  0  0  0  0  0  0  0  0
   -0.9250   -1.1510    3.7350 H   0  0  0  0  0  0  0  0  0  0  0  0
   -2.6140    5.1290   -0.4260 H   0  0  0  0  0  0  0  0  0  0  0  0
   -3.4580    3.8270   -1.2990 H   0  0  0  0  0  0  0  0  0  0  0  0
   -0.4890    4.3330   -1.0560 H   0  0  0  0  0  0  0  0  0  0  0  0
    2.0120    1.0920   -0.6360 H   0  0  0  0  0  0  0  0  0  0  0  0
    3.6250    0.1520   -2.2510 H   0  0  0  0  0  0  0  0  0  0  0  0
    3.0060   -1.8020   -3.6330 H   0  0  0  0  0  0  0  0  0  0  0  0
   -2.3170    3.8620   -3.4320 H   0  0  0  0  0  0  0  0  0  0  0  0
   -0.5700    4.1920   -3.5020 H   0  0  0  0  0  0  0  0  0  0  0  0
   -1.6860    5.4350   -2.8890 H   0  0  0  0  0  0  0  0  0  0  0  0
  1  3  1  0  0  0  0
  1  5  1  0  0  0  0
  1  9  1  0  0  0  0
  1 10  1  0  0  0  0
  2  3  2  0  0  0  0
  2  4  1  0  0  0  0
  2 11  1  0  0  0  0
  3 17  1  0  0  0  0
  4  6  1  0  0  0  0
  4  7  2  0  0  0  0
  5  6  1  0  0  0  0
  5  8  1  0  0  0  0
  5 26  1  0  0  0  0
  6 15  1  0  0  0  0
  6 27  1  0  0  0  0
  7 18  1  0  0  0  0
  7 28  1  0  0  0  0
  8 16  2  0  0  0  0
  8 22  1  0  0  0  0
  9 12  3  0  0  0  0
 10 13  3  0  0  0  0
 11 14  3  0  0  0  0
 15 20  1  0  0  0  0
 15 29  1  0  0  0  0
 15 30  1  0  0  0  0
 16 19  1  0  0  0  0
 16 31  1  0  0  0  0
 17 32  1  0  0  0  0
 17 33  1  0  0  0  0
 18 20  1  0  0  0  0
 18 34  1  0  0  0  0
 18 35  1  0  0  0  0
 19 21  1  0  0  0  0
 19 24  2  0  0  0  0
 20 25  1  0  0  0  0
 20 36  1  0  0  0  0
 22 23  2  0  0  0  0
 22 37  1  0  0  0  0
 23 24  1  0  0  0  0
 23 38  1  0  0  0  0
 24 39  1  0  0  0  0
 25 40  1  0  0  0  0
 25 41  1  0  0  0  0
 25 42  1  0  0  0  0
M  END
>  <$CLUSTER>
811

>  <INDEX>
501811

$$$$
Specs AN-648/15101110
  MOE2020           3D

 19 20  0  0  0  0  0  0  0  0999 V2000
   -0.1230   -0.6350    0.5790 C   0  0  0  0  0  0  0  0  0  0  0  0
    0.0620    0.3990   -0.3510 N   0  0  0  0  0  0  0  0  0  0  0  0
   -1.4160   -0.6040    1.7140 S   0  0  0  0  0  0  0  0  0  0  0  0
    0.6320   -1.7130    0.7010 N   0  0  0  0  0  0  0  0  0  0  0  0
    1.1170    0.3230   -1.2380 C   0  0  0  0  0  0  0  0  0  0  0  0
    0.2130   -2.5640    1.7040 N   0  0  0  0  0  0  0  0  0  0  0  0
   -0.7570    1.5250   -0.4500 C   0  0  0  0  0  0  0  0  0  0  0  0
    1.1600    1.7020   -2.2950 S   0  0  0  0  0  0  0  0  0  0  0  0
   -0.8520   -2.1000    2.3140 C   0  0  0  0  0  0  0  0  0  0  0  0
    2.0020   -0.6080   -1.3410 N   0  0  0  0  0  0  0  0  0  0  0  0
   -0.2920    2.4490   -1.5490 C   0  0  0  0  0  0  0  0  0  0  0  0
   -1.7450    1.8250    0.2130 O   0  0  0  0  0  0  0  0  0  0  0  0
   -1.5350   -2.7540    3.4090 C   0  0  0  0  0  0  0  0  0  0  0  0
    2.7280   -0.5400   -2.0400 H   0  0  0  0  0  0  0  0  0  0  0  0
   -0.0380    3.4240   -1.1340 H   0  0  0  0  0  0  0  0  0  0  0  0
   -1.0770    2.5650   -2.2960 H   0  0  0  0  0  0  0  0  0  0  0  0
   -2.3850   -2.1470    3.7210 H   0  0  0  0  0  0  0  0  0  0  0  0
   -0.8470   -2.8740    4.2460 H   0  0  0  0  0  0  0  0  0  0  0  0
   -1.8870   -3.7330    3.0850 H   0  0  0  0  0  0  0  0  0  0  0  0
  1  2  1  0  0  0  0
  1  3  1  0  0  0  0
  1  4  2  0  0  0  0
  2  5  1  0  0  0  0
  2  7  1  0  0  0  0
  3  9  1  0  0  0  0
  4  6  1  0  0  0  0
  5  8  1  0  0  0  0
  5 10  2  0  0  0  0
  6  9  2  0  0  0  0
  7 11  1  0  0  0  0
  7 12  2  0  0  0  0
  8 11  1  0  0  0  0
  9 13  1  0  0  0  0
 10 14  1  0  0  0  0
 11 15  1  0  0  0  0
 11 16  1  0  0  0  0
 13 17  1  0  0  0  0
 13 18  1  0  0  0  0
 13 19  1  0  0  0  0
M  END
>  <$CLUSTER>
812

>  <INDEX>
526296

$$$$
Specs AN-648/40682295
  MOE2020           3D

 39 40  0  0  0  0  0  0  0  0999 V2000
    1.1660    0.6790   -0.8630 N   0  0  0  0  0  0  0  0  0  0  0  0
    0.9360    0.3810   -2.1000 C   0  0  0  0  0  0  0  0  0  0  0  0
    1.8480    0.8640   -3.1840 C   0  0  0  0  0  0  0  0  0  0  0  0
   -1.0580   -1.4330   -6.2110 C   0  0  0  0  0  0  0  0  0  0  0  0
   -0.4420   -1.5660    1.6150 C   0  0  0  0  0  0  0  0  0  0  0  0
    1.5630    0.5170   -4.5210 C   0  0  0  0  0  0  0  0  0  0  0  0
    0.4520   -0.2530   -4.7500 O   0  0  0  0  0  0  0  0  0  0  0  0
   -1.5620   -0.8150    1.9680 C   0  0  0  0  0  0  0  0  0  0  0  0
    0.4610   -1.0730    0.6720 C   0  0  0  0  0  0  0  0  0  0  0  0
   -1.7420   -1.7790   -5.2520 O   0  0  0  0  0  0  0  0  0  0  0  0
    0.2460    0.1730    0.0700 C   0  0  0  0  0  0  0  0  0  0  0  0
   -1.7780    0.4310    1.3820 C   0  0  0  0  0  0  0  0  0  0  0  0
    0.1620   -0.6040   -6.0980 C   0  0  0  0  0  0  0  0  0  0  0  0
   -1.3420   -1.7760   -7.5140 N   0  0  0  0  0  0  0  0  0  0  0  0
   -0.8760    0.9260    0.4390 C   0  0  0  0  0  0  0  0  0  0  0  0
    2.9540    1.6420   -2.8660 C   0  0  0  0  0  0  0  0  0  0  0  0
   -0.2020   -2.9010    2.2420 C   0  0  0  0  0  0  0  0  0  0  0  0
   -2.5340   -1.3400    2.9740 C   0  0  0  0  0  0  0  0  0  0  0  0
    2.4260    0.9770   -5.5240 C   0  0  0  0  0  0  0  0  0  0  0  0
    3.8020    2.0910   -3.8770 C   0  0  0  0  0  0  0  0  0  0  0  0
    3.5380    1.7590   -5.2020 C   0  0  0  0  0  0  0  0  0  0  0  0
    0.0770   -0.2230   -2.3540 H   0  0  0  0  0  0  0  0  0  0  0  0
    1.3300   -1.6560    0.4050 H   0  0  0  0  0  0  0  0  0  0  0  0
   -2.6440    1.0140    1.6580 H   0  0  0  0  0  0  0  0  0  0  0  0
    0.0200    0.3090   -6.6760 H   0  0  0  0  0  0  0  0  0  0  0  0
    1.0050   -1.1630   -6.5040 H   0  0  0  0  0  0  0  0  0  0  0  0
   -2.1520   -2.3430   -7.7220 H   0  0  0  0  0  0  0  0  0  0  0  0
   -0.7410   -1.4610   -8.2620 H   0  0  0  0  0  0  0  0  0  0  0  0
   -1.0440    1.8940   -0.0080 H   0  0  0  0  0  0  0  0  0  0  0  0
    3.1570    1.8990   -1.8370 H   0  0  0  0  0  0  0  0  0  0  0  0
   -1.0030   -3.1200    2.9480 H   0  0  0  0  0  0  0  0  0  0  0  0
    0.7530   -2.8890    2.7680 H   0  0  0  0  0  0  0  0  0  0  0  0
   -0.1800   -3.6680    1.4670 H   0  0  0  0  0  0  0  0  0  0  0  0
   -2.2050   -2.3190    3.3210 H   0  0  0  0  0  0  0  0  0  0  0  0
   -3.5190   -1.4290    2.5160 H   0  0  0  0  0  0  0  0  0  0  0  0
   -2.5880   -0.6540    3.8200 H   0  0  0  0  0  0  0  0  0  0  0  0
    2.2300    0.7250   -6.5560 H   0  0  0  0  0  0  0  0  0  0  0  0
    4.6630    2.6960   -3.6320 H   0  0  0  0  0  0  0  0  0  0  0  0
    4.1950    2.1070   -5.9850 H   0  0  0  0  0  0  0  0  0  0  0  0
  1  2  2  0  0  0  0
  1 11  1  0  0  0  0
  2  3  1  0  0  0  0
  2 22  1  0  0  0  0
  3  6  2  0  0  0  0
  3 16  1  0  0  0  0
  4 10  2  0  0  0  0
  4 13  1  0  0  0  0
  4 14  1  0  0  0  0
  5  8  1  0  0  0  0
  5  9  2  0  0  0  0
  5 17  1  0  0  0  0
  6  7  1  0  0  0  0
  6 19  1  0  0  0  0
  7 13  1  0  0  0  0
  8 12  2  0  0  0  0
  8 18  1  0  0  0  0
  9 11  1  0  0  0  0
  9 23  1  0  0  0  0
 11 15  2  0  0  0  0
 12 15  1  0  0  0  0
 12 24  1  0  0  0  0
 13 25  1  0  0  0  0
 13 26  1  0  0  0  0
 14 27  1  0  0  0  0
 14 28  1  0  0  0  0
 15 29  1  0  0  0  0
 16 20  2  0  0  0  0
 16 30  1  0  0  0  0
 17 31  1  0  0  0  0
 17 32  1  0  0  0  0
 17 33  1  0  0  0  0
 18 34  1  0  0  0  0
 18 35  1  0  0  0  0
 18 36  1  0  0  0  0
 19 21  2  0  0  0  0
 19 37  1  0  0  0  0
 20 21  1  0  0  0  0
 20 38  1  0  0  0  0
 21 39  1  0  0  0  0
M  END
>  <$CLUSTER>
813

>  <INDEX>
526345

$$$$
InterBioScreen STOCK5S-94939
  MOE2020           3D

 43 47  0  0  0  0  0  0  0  0999 V2000
   -0.9190    0.4710    0.1440 N   0  0  0  0  0  0  0  0  0  0  0  0
   -1.2300   -0.5540   -0.7160 C   0  0  0  0  0  0  0  0  0  0  0  0
   -0.8640    8.4120   -3.8100 C   0  0  0  0  0  0  0  0  0  0  0  0
    0.3580    0.4920    0.6600 C   0  0  0  0  0  0  0  0  0  0  0  0
    1.1360   -0.6600    0.1430 C   0  0  0  0  0  0  0  0  0  0  0  0
   -1.3090    7.1520   -3.5760 N   0  0  0  0  0  0  0  0  0  0  0  0
    0.1660   -1.6080   -0.9160 S   0  0  0  0  0  0  0  0  0  0  0  0
    0.0520    9.0580   -2.4640 S   0  0  0  0  0  0  0  0  0  0  0  0
   -0.9590    6.6350   -2.3420 C   0  0  0  0  0  0  0  0  0  0  0  0
    2.4080   -0.8810    0.4860 C   0  0  0  0  0  0  0  0  0  0  0  0
   -0.2090    7.5330   -1.5860 C   0  0  0  0  0  0  0  0  0  0  0  0
   -1.1410    8.9810   -4.9350 N   0  0  0  0  0  0  0  0  0  0  0  0
   -1.8980    1.4910    0.4880 C   0  0  0  0  0  0  0  0  0  0  0  0
   -1.8350    2.6730   -0.4690 C   0  0  0  0  0  0  0  0  0  0  0  0
    3.2960   -1.9990    0.0380 C   0  0  0  0  0  0  0  0  0  0  0  0
   -1.2760    5.3720   -1.8300 C   0  0  0  0  0  0  0  0  0  0  0  0
    4.8500   -2.0480    0.6120 S   0  0  0  0  0  0  0  0  0  0  0  0
   -1.1350    3.7480   -0.0070 N   0  0  0  0  0  0  0  0  0  0  0  0
   -2.2930   -0.7570   -1.2900 O   0  0  0  0  0  0  0  0  0  0  0  0
    0.8120    1.3310    1.4320 O   0  0  0  0  0  0  0  0  0  0  0  0
   -0.8420    4.9980   -0.5540 C   0  0  0  0  0  0  0  0  0  0  0  0
    5.1720   -3.4720   -0.2750 C   0  0  0  0  0  0  0  0  0  0  0  0
    2.9620   -3.0180   -0.8190 C   0  0  0  0  0  0  0  0  0  0  0  0
   -2.3510    2.6730   -1.5900 O   0  0  0  0  0  0  0  0  0  0  0  0
    0.2270    7.1720   -0.3150 C   0  0  0  0  0  0  0  0  0  0  0  0
    4.0790   -3.8850   -0.9990 C   0  0  0  0  0  0  0  0  0  0  0  0
   -2.0550    6.6630   -4.7080 C   0  0  0  0  0  0  0  0  0  0  0  0
   -1.9450    7.9110   -5.6460 C   0  0  0  0  0  0  0  0  0  0  0  0
   -0.0880    5.9110    0.1980 C   0  0  0  0  0  0  0  0  0  0  0  0
    2.8480   -0.1680    1.1680 H   0  0  0  0  0  0  0  0  0  0  0  0
   -2.8950    1.0530    0.4440 H   0  0  0  0  0  0  0  0  0  0  0  0
   -1.7000    1.8440    1.5000 H   0  0  0  0  0  0  0  0  0  0  0  0
   -1.8590    4.6830   -2.4230 H   0  0  0  0  0  0  0  0  0  0  0  0
   -0.7510    3.6120    0.9170 H   0  0  0  0  0  0  0  0  0  0  0  0
    6.1210   -3.9870   -0.2680 H   0  0  0  0  0  0  0  0  0  0  0  0
    1.9970   -3.1440   -1.2870 H   0  0  0  0  0  0  0  0  0  0  0  0
    0.8080    7.8660    0.2740 H   0  0  0  0  0  0  0  0  0  0  0  0
    4.0680   -4.7620   -1.6290 H   0  0  0  0  0  0  0  0  0  0  0  0
   -1.5930    5.7800   -5.1490 H   0  0  0  0  0  0  0  0  0  0  0  0
   -3.0900    6.4400   -4.4480 H   0  0  0  0  0  0  0  0  0  0  0  0
   -2.9420    8.2900   -5.8720 H   0  0  0  0  0  0  0  0  0  0  0  0
   -1.4450    7.6310   -6.5730 H   0  0  0  0  0  0  0  0  0  0  0  0
    0.2530    5.6360    1.1850 H   0  0  0  0  0  0  0  0  0  0  0  0
  1  2  1  0  0  0  0
  1  4  1  0  0  0  0
  1 13  1  0  0  0  0
  2  7  1  0  0  0  0
  2 19  2  0  0  0  0
  3  6  1  0  0  0  0
  3  8  1  0  0  0  0
  3 12  2  0  0  0  0
  4  5  1  0  0  0  0
  4 20  2  0  0  0  0
  5  7  1  0  0  0  0
  5 10  2  0  0  0  0
  6  9  1  0  0  0  0
  6 27  1  0  0  0  0
  8 11  1  0  0  0  0
  9 11  2  0  0  0  0
  9 16  1  0  0  0  0
 10 15  1  0  0  0  0
 10 30  1  0  0  0  0
 11 25  1  0  0  0  0
 12 28  1  0  0  0  0
 13 14  1  0  0  0  0
 13 31  1  0  0  0  0
 13 32  1  0  0  0  0
 14 18  1  0  0  0  0
 14 24  2  0  0  0  0
 15 17  1  0  0  0  0
 15 23  2  0  0  0  0
 16 21  2  0  0  0  0
 16 33  1  0  0  0  0
 17 22  1  0  0  0  0
 18 21  1  0  0  0  0
 18 34  1  0  0  0  0
 21 29  1  0  0  0  0
 22 26  2  0  0  0  0
 22 35  1  0  0  0  0
 23 26  1  0  0  0  0
 23 36  1  0  0  0  0
 25 29  2  0  0  0  0
 25 37  1  0  0  0  0
 26 38  1  0  0  0  0
 27 28  1  0  0  0  0
 27 39  1  0  0  0  0
 27 40  1  0  0  0  0
 28 41  1  0  0  0  0
 28 42  1  0  0  0  0
 29 43  1  0  0  0  0
M  END
>  <$CLUSTER>
814

>  <INDEX>
398527

$$$$
Chem T&I NSB 0011247
  MOE2020           3D

 25 25  0  0  0  0  0  0  0  0999 V2000
    0.8480    0.6250   -0.8090 N   0  0  0  0  0  0  0  0  0  0  0  0
   -0.1250    0.0320    0.0210 C   0  0  0  0  0  0  0  0  0  0  0  0
   -1.4000    0.6140    0.0450 C   0  0  0  0  0  0  0  0  0  0  0  0
    2.1540    0.2400   -0.9980 C   0  0  0  0  0  0  0  0  0  0  0  0
   -2.4250    0.0980    0.8340 C   0  0  0  0  0  0  0  0  0  0  0  0
    2.7280   -0.7100   -0.4690 O   0  0  0  0  0  0  0  0  0  0  0  0
    0.1040   -1.0920    0.8180 C   0  0  0  0  0  0  0  0  0  0  0  0
   -2.1840   -1.0240    1.6240 C   0  0  0  0  0  0  0  0  0  0  0  0
   -1.6570    1.6970   -0.7070 F   0  0  0  0  0  0  0  0  0  0  0  0
   -0.9210   -1.6170    1.6140 C   0  0  0  0  0  0  0  0  0  0  0  0
   -3.2060   -1.4650    2.3550 F   0  0  0  0  0  0  0  0  0  0  0  0
    2.8770    1.1370   -1.9740 C   0  0  0  0  0  0  0  0  0  0  0  0
    4.3240    0.7530   -2.2150 C   0  0  0  0  0  0  0  0  0  0  0  0
    5.0200    1.6640   -3.1910 C   0  0  0  0  0  0  0  0  0  0  0  0
    0.5470    1.4360   -1.3310 H   0  0  0  0  0  0  0  0  0  0  0  0
   -3.3990    0.5640    0.8330 H   0  0  0  0  0  0  0  0  0  0  0  0
    1.0780   -1.5590    0.8200 H   0  0  0  0  0  0  0  0  0  0  0  0
   -0.7330   -2.4870    2.2250 H   0  0  0  0  0  0  0  0  0  0  0  0
    2.8530    2.1550   -1.5850 H   0  0  0  0  0  0  0  0  0  0  0  0
    2.3500    1.1000   -2.9270 H   0  0  0  0  0  0  0  0  0  0  0  0
    4.3530   -0.2630   -2.6070 H   0  0  0  0  0  0  0  0  0  0  0  0
    4.8560    0.7910   -1.2650 H   0  0  0  0  0  0  0  0  0  0  0  0
    4.4990    1.6370   -4.1480 H   0  0  0  0  0  0  0  0  0  0  0  0
    6.0490    1.3310   -3.3280 H   0  0  0  0  0  0  0  0  0  0  0  0
    5.0160    2.6830   -2.8030 H   0  0  0  0  0  0  0  0  0  0  0  0
  1  2  1  0  0  0  0
  1  4  1  0  0  0  0
  1 15  1  0  0  0  0
  2  3  2  0  0  0  0
  2  7  1  0  0  0  0
  3  5  1  0  0  0  0
  3  9  1  0  0  0  0
  4  6  2  0  0  0  0
  4 12  1  0  0  0  0
  5  8  2  0  0  0  0
  5 16  1  0  0  0  0
  7 10  2  0  0  0  0
  7 17  1  0  0  0  0
  8 10  1  0  0  0  0
  8 11  1  0  0  0  0
 10 18  1  0  0  0  0
 12 13  1  0  0  0  0
 12 19  1  0  0  0  0
 12 20  1  0  0  0  0
 13 14  1  0  0  0  0
 13 21  1  0  0  0  0
 13 22  1  0  0  0  0
 14 23  1  0  0  0  0
 14 24  1  0  0  0  0
 14 25  1  0  0  0  0
M  END
>  <$CLUSTER>
815

>  <INDEX>
567810

$$$$
Chembridge 5622977
  MOE2020           3D

 43 46  0  0  1  0  0  0  0  0999 V2000
   -1.5830   -0.2350    0.2650 C   0  0  0  0  0  0  0  0  0  0  0  0
   -0.4620   -0.7890   -0.3530 C   0  0  0  0  0  0  0  0  0  0  0  0
   -2.8350   -0.7100    0.0980 N   0  0  0  0  0  0  0  0  0  0  0  0
   -1.5170    0.8390    1.1240 O   0  0  0  0  0  0  0  0  0  0  0  0
   -0.6500   -1.8460   -1.2020 N   0  0  0  0  0  0  0  0  0  0  0  0
    0.4580    1.9900    0.5530 N   0  0  0  0  0  0  0  0  0  0  0  0
   -0.9790    1.9540    0.4110 C   0  0  3  0  0  0  0  0  0  0  0  0
    0.9410   -0.3680   -0.1460 C   0  0  0  0  0  0  0  0  0  0  0  0
   -2.9120   -1.7530   -0.7460 C   0  0  0  0  0  0  0  0  0  0  0  0
    1.3300    0.9290    0.2850 C   0  0  0  0  0  0  0  0  0  0  0  0
   -1.8740   -2.3260   -1.4020 N   0  0  0  0  0  0  0  0  0  0  0  0
   -1.5850    3.2100    1.0280 C   0  0  0  0  0  0  0  0  0  0  0  0
   -4.5210   -2.4680   -1.0730 S   0  0  0  0  0  0  0  0  0  0  0  0
   -1.5880    3.4650    2.4070 C   0  0  0  0  0  0  0  0  0  0  0  0
   -2.1840    4.1900    0.1800 C   0  0  0  0  0  0  0  0  0  0  0  0
   -2.7490    5.3530    0.7130 C   0  0  0  0  0  0  0  0  0  0  0  0
   -2.1530    4.6280    2.9390 C   0  0  0  0  0  0  0  0  0  0  0  0
   -2.7350    5.5710    2.0920 C   0  0  0  0  0  0  0  0  0  0  0  0
    1.9680   -1.3220   -0.3830 C   0  0  0  0  0  0  0  0  0  0  0  0
    2.7000    1.2010    0.4570 C   0  0  0  0  0  0  0  0  0  0  0  0
   -5.5690   -1.4150   -0.0340 C   0  0  0  0  0  0  0  0  0  0  0  0
   -3.3410    6.8110    2.6610 C   0  0  0  0  0  0  0  0  0  0  0  0
    3.3160   -1.0210   -0.2050 C   0  0  0  0  0  0  0  0  0  0  0  0
   -5.6970    0.0010   -0.5800 C   0  0  0  0  0  0  0  0  0  0  0  0
    3.6830    0.2460    0.2170 C   0  0  0  0  0  0  0  0  0  0  0  0
    0.8690    2.8550    0.8730 H   0  0  0  0  0  0  0  0  0  0  0  0
   -1.2130    1.8820   -0.6510 H   0  0  0  0  0  0  0  0  0  0  0  0
   -1.1420    2.7440    3.0760 H   0  0  0  0  0  0  0  0  0  0  0  0
   -2.2010    4.0310   -0.8880 H   0  0  0  0  0  0  0  0  0  0  0  0
   -3.1970    6.0840    0.0560 H   0  0  0  0  0  0  0  0  0  0  0  0
   -2.1390    4.7960    4.0060 H   0  0  0  0  0  0  0  0  0  0  0  0
    1.6940   -2.3130   -0.7120 H   0  0  0  0  0  0  0  0  0  0  0  0
    2.9990    2.1850    0.7870 H   0  0  0  0  0  0  0  0  0  0  0  0
   -5.1350   -1.3670    0.9650 H   0  0  0  0  0  0  0  0  0  0  0  0
   -6.5630   -1.8590    0.0230 H   0  0  0  0  0  0  0  0  0  0  0  0
   -3.7430    7.4230    1.8530 H   0  0  0  0  0  0  0  0  0  0  0  0
   -2.5780    7.3750    3.1980 H   0  0  0  0  0  0  0  0  0  0  0  0
   -4.1440    6.5410    3.3470 H   0  0  0  0  0  0  0  0  0  0  0  0
    4.0700   -1.7710   -0.3950 H   0  0  0  0  0  0  0  0  0  0  0  0
   -4.7090    0.4570   -0.6420 H   0  0  0  0  0  0  0  0  0  0  0  0
   -6.3280    0.5910    0.0840 H   0  0  0  0  0  0  0  0  0  0  0  0
   -6.1450   -0.0320   -1.5730 H   0  0  0  0  0  0  0  0  0  0  0  0
    4.7250    0.4910    0.3590 H   0  0  0  0  0  0  0  0  0  0  0  0
  1  2  2  0  0  0  0
  1  3  1  0  0  0  0
  1  4  1  0  0  0  0
  2  5  1  0  0  0  0
  2  8  1  0  0  0  0
  3  9  2  0  0  0  0
  4  7  1  0  0  0  0
  5 11  2  0  0  0  0
  6  7  1  0  0  0  0
  6 10  1  0  0  0  0
  6 26  1  0  0  0  0
  7 12  1  0  0  0  0
  7 27  1  0  0  0  0
  8 10  2  0  0  0  0
  8 19  1  0  0  0  0
  9 11  1  0  0  0  0
  9 13  1  0  0  0  0
 10 20  1  0  0  0  0
 12 14  1  0  0  0  0
 12 15  2  0  0  0  0
 13 21  1  0  0  0  0
 14 17  2  0  0  0  0
 14 28  1  0  0  0  0
 15 16  1  0  0  0  0
 15 29  1  0  0  0  0
 16 18  2  0  0  0  0
 16 30  1  0  0  0  0
 17 18  1  0  0  0  0
 17 31  1  0  0  0  0
 18 22  1  0  0  0  0
 19 23  2  0  0  0  0
 19 32  1  0  0  0  0
 20 25  2  0  0  0  0
 20 33  1  0  0  0  0
 21 24  1  0  0  0  0
 21 34  1  0  0  0  0
 21 35  1  0  0  0  0
 22 36  1  0  0  0  0
 22 37  1  0  0  0  0
 22 38  1  0  0  0  0
 23 25  1  0  0  0  0
 23 39  1  0  0  0  0
 24 40  1  0  0  0  0
 24 41  1  0  0  0  0
 24 42  1  0  0  0  0
 25 43  1  0  0  0  0
M  END
>  <$CLUSTER>
816

>  <INDEX>
49523

$$$$
InterBioScreen STOCK5S-46273
  MOE2020           3D

 35 38  0  0  1  0  0  0  0  0999 V2000
    0.0080    0.0170    0.0080 N   0  0  0  0  0  0  0  0  0  0  0  0
   -0.7010    0.8420    0.8850 C   0  0  0  0  0  0  0  0  0  0  0  0
   -2.0210    0.3880    0.8810 N   0  0  0  0  0  0  0  0  0  0  0  0
   -0.8400   -0.9400   -0.5390 C   0  0  0  0  0  0  0  0  0  0  0  0
   -2.2260   -0.7690    0.0560 C   0  0  2  0  0  0  0  0  0  0  0  0
    1.4030    0.1430   -0.2900 C   0  0  0  0  0  0  0  0  0  0  0  0
   -3.1370    0.9560    1.6170 C   0  0  0  0  0  0  0  0  0  0  0  0
   -3.3040   -0.4950   -0.9820 C   0  0  0  0  0  0  0  0  0  0  0  0
   -4.4430    0.8310    0.8680 C   0  0  0  0  0  0  0  0  0  0  0  0
   -4.5320    0.1210   -0.3490 C   0  0  0  0  0  0  0  0  0  0  0  0
   -0.2960    1.7720    1.5710 O   0  0  0  0  0  0  0  0  0  0  0  0
    2.1040    1.3340   -0.0310 C   0  0  0  0  0  0  0  0  0  0  0  0
   -0.6050   -1.7990   -1.3800 O   0  0  0  0  0  0  0  0  0  0  0  0
    3.4680    1.4560   -0.3240 C   0  0  0  0  0  0  0  0  0  0  0  0
    2.1300   -0.9190   -0.8540 C   0  0  0  0  0  0  0  0  0  0  0  0
    4.1710    2.5690   -0.0970 F   0  0  0  0  0  0  0  0  0  0  0  0
    3.4940   -0.7980   -1.1450 C   0  0  0  0  0  0  0  0  0  0  0  0
   -5.7650    0.0360   -1.0100 C   0  0  0  0  0  0  0  0  0  0  0  0
   -5.5970    1.4150    1.4100 C   0  0  0  0  0  0  0  0  0  0  0  0
    4.1640    0.3900   -0.8800 C   0  0  0  0  0  0  0  0  0  0  0  0
   -6.8200    1.3110    0.7480 C   0  0  0  0  0  0  0  0  0  0  0  0
   -6.9030    0.6250   -0.4610 C   0  0  0  0  0  0  0  0  0  0  0  0
   -2.5820   -1.6630    0.5680 H   0  0  0  0  0  0  0  0  0  0  0  0
   -3.2290    0.4360    2.5700 H   0  0  0  0  0  0  0  0  0  0  0  0
   -2.9360    2.0120    1.7970 H   0  0  0  0  0  0  0  0  0  0  0  0
   -2.9090    0.1910   -1.7320 H   0  0  0  0  0  0  0  0  0  0  0  0
   -3.5840   -1.4340   -1.4600 H   0  0  0  0  0  0  0  0  0  0  0  0
    1.5790    2.1720    0.4030 H   0  0  0  0  0  0  0  0  0  0  0  0
    1.6250   -1.8490   -1.0680 H   0  0  0  0  0  0  0  0  0  0  0  0
    4.0280   -1.6320   -1.5770 H   0  0  0  0  0  0  0  0  0  0  0  0
   -5.8340   -0.4890   -1.9510 H   0  0  0  0  0  0  0  0  0  0  0  0
   -5.5380    1.9490    2.3470 H   0  0  0  0  0  0  0  0  0  0  0  0
    5.2160    0.4840   -1.1040 H   0  0  0  0  0  0  0  0  0  0  0  0
   -7.7040    1.7630    1.1730 H   0  0  0  0  0  0  0  0  0  0  0  0
   -7.8500    0.5490   -0.9740 H   0  0  0  0  0  0  0  0  0  0  0  0
  1  2  1  0  0  0  0
  1  4  1  0  0  0  0
  1  6  1  0  0  0  0
  2  3  1  0  0  0  0
  2 11  2  0  0  0  0
  3  5  1  0  0  0  0
  3  7  1  0  0  0  0
  4  5  1  0  0  0  0
  4 13  2  0  0  0  0
  5  8  1  0  0  0  0
  5 23  1  0  0  0  0
  6 12  2  0  0  0  0
  6 15  1  0  0  0  0
  7  9  1  0  0  0  0
  7 24  1  0  0  0  0
  7 25  1  0  0  0  0
  8 10  1  0  0  0  0
  8 26  1  0  0  0  0
  8 27  1  0  0  0  0
  9 10  1  0  0  0  0
  9 19  2  0  0  0  0
 10 18  2  0  0  0  0
 12 14  1  0  0  0  0
 12 28  1  0  0  0  0
 14 16  1  0  0  0  0
 14 20  2  0  0  0  0
 15 17  2  0  0  0  0
 15 29  1  0  0  0  0
 17 20  1  0  0  0  0
 17 30  1  0  0  0  0
 18 22  1  0  0  0  0
 18 31  1  0  0  0  0
 19 21  1  0  0  0  0
 19 32  1  0  0  0  0
 20 33  1  0  0  0  0
 21 22  2  0  0  0  0
 21 34  1  0  0  0  0
 22 35  1  0  0  0  0
M  END
>  <$CLUSTER>
817

>  <INDEX>
376805

$$$$
InterBioScreen STOCK2S-27479
  MOE2020           3D

 45 47  0  0  0  0  0  0  0  0999 V2000
   -1.8030   -1.7080    1.2570 C   0  0  0  0  0  0  0  0  0  0  0  0
   -0.3460   -0.3310    0.2080 N   0  0  0  0  0  0  0  0  0  0  0  0
   -1.8420   -2.0230   -0.1400 C   0  0  0  0  0  0  0  0  0  0  0  0
   -0.8860   -1.1260   -0.8280 C   0  0  0  0  0  0  0  0  0  0  0  0
   -0.9190   -0.7090    1.4300 C   0  0  0  0  0  0  0  0  0  0  0  0
    0.6290    0.6850   -0.0470 C   0  0  0  0  0  0  0  0  0  0  0  0
   -2.5850   -2.4170    2.3070 C   0  0  0  0  0  0  0  0  0  0  0  0
   -2.5790   -2.9450   -0.7510 C   0  0  0  0  0  0  0  0  0  0  0  0
   -0.7000   -1.1120   -2.0340 O   0  0  0  0  0  0  0  0  0  0  0  0
    0.7110    1.8450    0.7370 C   0  0  0  0  0  0  0  0  0  0  0  0
   -2.7850   -3.6220    2.3790 O   0  0  0  0  0  0  0  0  0  0  0  0
   -2.7050   -3.3020   -2.2250 C   0  0  0  0  0  0  0  0  0  0  0  0
   -0.5220   -0.1860    2.7660 C   0  0  0  0  0  0  0  0  0  0  0  0
   -3.1080   -1.5370    3.1780 O   0  0  0  0  0  0  0  0  0  0  0  0
   -2.8780   -3.8810   -4.9080 C   0  0  0  0  0  0  0  0  0  0  0  0
    1.6680    2.8330    0.4730 C   0  0  0  0  0  0  0  0  0  0  0  0
    1.5360    0.5560   -1.1140 C   0  0  0  0  0  0  0  0  0  0  0  0
   -2.8700   -4.5840   -2.5980 C   0  0  0  0  0  0  0  0  0  0  0  0
   -2.6040   -2.2500   -3.1460 C   0  0  0  0  0  0  0  0  0  0  0  0
   -2.7010   -2.5600   -4.5040 C   0  0  0  0  0  0  0  0  0  0  0  0
   -2.9650   -4.8930   -3.9560 C   0  0  0  0  0  0  0  0  0  0  0  0
   -2.9650   -4.1640   -6.2350 O   0  0  0  0  0  0  0  0  0  0  0  0
    2.4940    1.5410   -1.3760 C   0  0  0  0  0  0  0  0  0  0  0  0
    2.5610    2.6800   -0.5820 C   0  0  0  0  0  0  0  0  0  0  0  0
    1.7240    4.0540    1.3340 C   0  0  0  0  0  0  0  0  0  0  0  0
   -3.8990   -2.0480    4.2530 C   0  0  0  0  0  0  0  0  0  0  0  0
   -3.1910   -3.5410   -0.0900 H   0  0  0  0  0  0  0  0  0  0  0  0
    0.0240    1.9790    1.5590 H   0  0  0  0  0  0  0  0  0  0  0  0
    0.2030    0.6180    2.6410 H   0  0  0  0  0  0  0  0  0  0  0  0
   -0.0760   -0.9890    3.3530 H   0  0  0  0  0  0  0  0  0  0  0  0
   -1.4020    0.1960    3.2830 H   0  0  0  0  0  0  0  0  0  0  0  0
    1.4920   -0.3210   -1.7430 H   0  0  0  0  0  0  0  0  0  0  0  0
   -2.9280   -5.3660   -1.8550 H   0  0  0  0  0  0  0  0  0  0  0  0
   -2.4560   -1.2320   -2.8160 H   0  0  0  0  0  0  0  0  0  0  0  0
   -2.6390   -1.7740   -5.2420 H   0  0  0  0  0  0  0  0  0  0  0  0
   -3.1060   -5.9170   -4.2680 H   0  0  0  0  0  0  0  0  0  0  0  0
   -3.0870   -5.0930   -6.4450 H   0  0  0  0  0  0  0  0  0  0  0  0
    3.1840    1.4160   -2.1980 H   0  0  0  0  0  0  0  0  0  0  0  0
    3.3010    3.4400   -0.7830 H   0  0  0  0  0  0  0  0  0  0  0  0
    2.5230    4.7080    0.9850 H   0  0  0  0  0  0  0  0  0  0  0  0
    1.9180    3.7620    2.3660 H   0  0  0  0  0  0  0  0  0  0  0  0
    0.7720    4.5820    1.2780 H   0  0  0  0  0  0  0  0  0  0  0  0
   -4.2510   -1.2210    4.8700 H   0  0  0  0  0  0  0  0  0  0  0  0
   -3.2950   -2.7230    4.8600 H   0  0  0  0  0  0  0  0  0  0  0  0
   -4.7540   -2.5900    3.8490 H   0  0  0  0  0  0  0  0  0  0  0  0
  1  3  1  0  0  0  0
  1  5  2  0  0  0  0
  1  7  1  0  0  0  0
  2  4  1  0  0  0  0
  2  5  1  0  0  0  0
  2  6  1  0  0  0  0
  3  4  1  0  0  0  0
  3  8  2  0  0  0  0
  4  9  2  0  0  0  0
  5 13  1  0  0  0  0
  6 10  1  0  0  0  0
  6 17  2  0  0  0  0
  7 11  2  0  0  0  0
  7 14  1  0  0  0  0
  8 12  1  0  0  0  0
  8 27  1  0  0  0  0
 10 16  2  0  0  0  0
 10 28  1  0  0  0  0
 12 18  1  0  0  0  0
 12 19  2  0  0  0  0
 13 29  1  0  0  0  0
 13 30  1  0  0  0  0
 13 31  1  0  0  0  0
 14 26  1  0  0  0  0
 15 20  2  0  0  0  0
 15 21  1  0  0  0  0
 15 22  1  0  0  0  0
 16 24  1  0  0  0  0
 16 25  1  0  0  0  0
 17 23  1  0  0  0  0
 17 32  1  0  0  0  0
 18 21  2  0  0  0  0
 18 33  1  0  0  0  0
 19 20  1  0  0  0  0
 19 34  1  0  0  0  0
 20 35  1  0  0  0  0
 21 36  1  0  0  0  0
 22 37  1  0  0  0  0
 23 24  2  0  0  0  0
 23 38  1  0  0  0  0
 24 39  1  0  0  0  0
 25 40  1  0  0  0  0
 25 41  1  0  0  0  0
 25 42  1  0  0  0  0
 26 43  1  0  0  0  0
 26 44  1  0  0  0  0
 26 45  1  0  0  0  0
M  END
>  <$CLUSTER>
818

>  <INDEX>
336583

$$$$
Specs AO-081/40681133
  MOE2020           3D

 47 50  0  0  0  0  0  0  0  0999 V2000
   -0.6870   -0.3260   -1.3070 C   0  0  0  0  0  0  0  0  0  0  0  0
   -1.7650   -3.3850   -4.7190 N   0  0  0  0  0  0  0  0  0  0  0  0
   -1.3350   -1.8800   -3.2060 C   0  0  0  0  0  0  0  0  0  0  0  0
   -1.3000   -0.5850   -2.4590 C   0  0  0  0  0  0  0  0  0  0  0  0
    0.1190   -1.2140   -0.4500 C   0  0  0  0  0  0  0  0  0  0  0  0
   -0.7380    1.0180   -0.6770 C   0  0  0  0  0  0  0  0  0  0  0  0
   -0.9940   -4.0000   -3.7700 C   0  0  0  0  0  0  0  0  0  0  0  0
   -1.9800   -2.0710   -4.3740 C   0  0  0  0  0  0  0  0  0  0  0  0
   -0.7050   -3.0700   -2.7960 C   0  0  0  0  0  0  0  0  0  0  0  0
    0.5390   -0.3940    0.6800 C   0  0  0  0  0  0  0  0  0  0  0  0
    0.0400    0.9050    0.5480 C   0  0  0  0  0  0  0  0  0  0  0  0
   -2.2950   -4.1010   -5.8710 C   0  0  0  0  0  0  0  0  0  0  0  0
   -3.6770   -4.2570   -6.0860 C   0  0  0  0  0  0  0  0  0  0  0  0
   -3.5930   -6.0480   -9.5120 C   0  0  0  0  0  0  0  0  0  0  0  0
   -3.1660   -5.3620   -8.2020 C   0  0  0  0  0  0  0  0  0  0  0  0
   -4.0930   -4.8790   -7.2760 C   0  0  0  0  0  0  0  0  0  0  0  0
   -1.3630   -4.6020   -6.7940 C   0  0  0  0  0  0  0  0  0  0  0  0
    0.3990   -2.3920   -0.6150 O   0  0  0  0  0  0  0  0  0  0  0  0
   -1.3090    2.0190   -1.0860 O   0  0  0  0  0  0  0  0  0  0  0  0
   -1.8030   -5.2310   -7.9570 C   0  0  0  0  0  0  0  0  0  0  0  0
   -2.7930   -6.0070  -10.4910 O   0  0  0  0  0  0  0  0  0  0  0  0
   -4.7470   -6.5640   -9.4510 O   0  5  0  0  0  0  0  0  0  0  0  0
   -0.5190   -5.4310   -3.7780 C   0  0  0  0  0  0  0  0  0  0  0  0
   -2.7910   -1.1750   -5.2390 C   0  0  0  0  0  0  0  0  0  0  0  0
    1.3120   -0.7620    1.7600 C   0  0  0  0  0  0  0  0  0  0  0  0
    0.2970    1.8770    1.4900 C   0  0  0  0  0  0  0  0  0  0  0  0
   -4.7410   -3.8260   -5.1160 C   0  0  0  0  0  0  0  0  0  0  0  0
    1.5830    0.2130    2.7270 C   0  0  0  0  0  0  0  0  0  0  0  0
    1.0800    1.5200    2.5930 C   0  0  0  0  0  0  0  0  0  0  0  0
   -1.8360    0.2380   -2.9080 H   0  0  0  0  0  0  0  0  0  0  0  0
   -0.1170   -3.2220   -1.9030 H   0  0  0  0  0  0  0  0  0  0  0  0
   -5.1490   -4.9850   -7.4780 H   0  0  0  0  0  0  0  0  0  0  0  0
   -0.3050   -4.5000   -6.6030 H   0  0  0  0  0  0  0  0  0  0  0  0
   -1.0870   -5.6160   -8.6670 H   0  0  0  0  0  0  0  0  0  0  0  0
    0.0760   -5.6210   -2.8850 H   0  0  0  0  0  0  0  0  0  0  0  0
    0.0900   -5.6070   -4.6650 H   0  0  0  0  0  0  0  0  0  0  0  0
   -1.3800   -6.1000   -3.7900 H   0  0  0  0  0  0  0  0  0  0  0  0
   -2.8400   -0.1830   -4.7900 H   0  0  0  0  0  0  0  0  0  0  0  0
   -3.7990   -1.5790   -5.3370 H   0  0  0  0  0  0  0  0  0  0  0  0
   -2.3300   -1.1060   -6.2240 H   0  0  0  0  0  0  0  0  0  0  0  0
    1.6950   -1.7670    1.8570 H   0  0  0  0  0  0  0  0  0  0  0  0
   -0.0920    2.8790    1.3810 H   0  0  0  0  0  0  0  0  0  0  0  0
   -5.7230   -4.0620   -5.5260 H   0  0  0  0  0  0  0  0  0  0  0  0
   -4.6660   -2.7520   -4.9480 H   0  0  0  0  0  0  0  0  0  0  0  0
   -4.6060   -4.3520   -4.1710 H   0  0  0  0  0  0  0  0  0  0  0  0
    2.1860   -0.0410    3.5860 H   0  0  0  0  0  0  0  0  0  0  0  0
    1.3010    2.2570    3.3510 H   0  0  0  0  0  0  0  0  0  0  0  0
  1  4  2  0  0  0  0
  1  5  1  0  0  0  0
  1  6  1  0  0  0  0
  2  7  1  0  0  0  0
  2  8  1  0  0  0  0
  2 12  1  0  0  0  0
  3  4  1  0  0  0  0
  3  8  2  0  0  0  0
  3  9  1  0  0  0  0
  4 30  1  0  0  0  0
  5 10  1  0  0  0  0
  5 18  2  0  0  0  0
  6 11  1  0  0  0  0
  6 19  2  0  0  0  0
  7  9  2  0  0  0  0
  7 23  1  0  0  0  0
  8 24  1  0  0  0  0
  9 31  1  0  0  0  0
 10 11  1  0  0  0  0
 10 25  2  0  0  0  0
 11 26  2  0  0  0  0
 12 13  1  0  0  0  0
 12 17  2  0  0  0  0
 13 16  2  0  0  0  0
 13 27  1  0  0  0  0
 14 15  1  0  0  0  0
 14 21  2  0  0  0  0
 14 22  1  0  0  0  0
 15 16  1  0  0  0  0
 15 20  2  0  0  0  0
 16 32  1  0  0  0  0
 17 20  1  0  0  0  0
 17 33  1  0  0  0  0
 20 34  1  0  0  0  0
 23 35  1  0  0  0  0
 23 36  1  0  0  0  0
 23 37  1  0  0  0  0
 24 38  1  0  0  0  0
 24 39  1  0  0  0  0
 24 40  1  0  0  0  0
 25 28  1  0  0  0  0
 25 41  1  0  0  0  0
 26 29  1  0  0  0  0
 26 42  1  0  0  0  0
 27 43  1  0  0  0  0
 27 44  1  0  0  0  0
 27 45  1  0  0  0  0
 28 29  2  0  0  0  0
 28 46  1  0  0  0  0
 29 47  1  0  0  0  0
M  CHG  1  22  -1
M  END
>  <$CLUSTER>
819

>  <INDEX>
529914

$$$$
Chembridge 6374473
  MOE2020           3D

 44 47  0  0  0  0  0  0  0  0999 V2000
    0.1710    0.8970    0.1820 N   0  0  0  0  0  0  0  0  0  0  0  0
    0.0620    0.0040    1.2250 C   0  0  0  0  0  0  0  0  0  0  0  0
   -0.1360   -1.2670    1.1790 N   0  0  0  0  0  0  0  0  0  0  0  0
   -0.2430   -1.0090   -1.2840 C   0  0  0  0  0  0  0  0  0  0  0  0
    0.4100    2.2220    0.5200 N   0  0  0  0  0  0  0  0  0  0  0  0
    0.0370    0.4650   -1.1260 C   0  0  0  0  0  0  0  0  0  0  0  0
    0.2380    0.8440    2.7570 S   0  0  0  0  0  0  0  0  0  0  0  0
   -0.2410   -1.8740   -0.0560 C   0  0  0  0  0  0  0  0  0  0  0  0
    0.4640    2.3140    1.8160 C   0  0  0  0  0  0  0  0  0  0  0  0
   -0.4710   -1.4750   -2.5230 C   0  0  0  0  0  0  0  0  0  0  0  0
    0.1380    1.2540   -2.1560 N   0  0  0  0  0  0  0  0  0  0  0  0
   -2.0040   -4.3550   -4.3920 C   0  0  0  0  0  0  0  0  0  0  0  0
   -0.3130   -3.0980   -0.1330 O   0  0  0  0  0  0  0  0  0  0  0  0
   -0.8210   -2.8670   -2.9480 C   0  0  0  0  0  0  0  0  0  0  0  0
    0.7050    3.5910    2.5500 C   0  0  0  0  0  0  0  0  0  0  0  0
   -1.6760   -3.0580   -3.9940 C   0  0  0  0  0  0  0  0  0  0  0  0
   -1.4630   -5.4480   -3.7200 C   0  0  0  0  0  0  0  0  0  0  0  0
   -0.5900   -5.2460   -2.6530 C   0  0  0  0  0  0  0  0  0  0  0  0
   -0.2620   -3.9490   -2.2540 C   0  0  0  0  0  0  0  0  0  0  0  0
   -2.8620   -4.6580   -5.4410 O   0  0  0  0  0  0  0  0  0  0  0  0
   -1.8430   -6.6980   -4.1810 O   0  0  0  0  0  0  0  0  0  0  0  0
    0.8820    4.7440    1.7470 C   0  0  0  0  0  0  0  0  0  0  0  0
    0.7640    3.7050    3.9220 C   0  0  0  0  0  0  0  0  0  0  0  0
   -3.4360   -3.5680   -6.1510 C   0  0  0  0  0  0  0  0  0  0  0  0
   -1.3050   -7.8340   -3.5160 C   0  0  0  0  0  0  0  0  0  0  0  0
    0.9950    4.9470    4.5210 C   0  0  0  0  0  0  0  0  0  0  0  0
    1.1130    5.9830    2.3470 C   0  0  0  0  0  0  0  0  0  0  0  0
    1.1700    6.0840    3.7350 C   0  0  0  0  0  0  0  0  0  0  0  0
   -0.3910   -0.7490   -3.3180 H   0  0  0  0  0  0  0  0  0  0  0  0
    0.3240    2.2380   -2.0220 H   0  0  0  0  0  0  0  0  0  0  0  0
   -2.0970   -2.2090   -4.5120 H   0  0  0  0  0  0  0  0  0  0  0  0
   -0.1670   -6.0930   -2.1340 H   0  0  0  0  0  0  0  0  0  0  0  0
    0.4100   -3.7820   -1.4250 H   0  0  0  0  0  0  0  0  0  0  0  0
    0.8380    4.6650    0.6710 H   0  0  0  0  0  0  0  0  0  0  0  0
    0.6310    2.8290    4.5390 H   0  0  0  0  0  0  0  0  0  0  0  0
   -4.0830   -3.9490   -6.9410 H   0  0  0  0  0  0  0  0  0  0  0  0
   -2.6430   -2.9630   -6.5910 H   0  0  0  0  0  0  0  0  0  0  0  0
   -4.0220   -2.9560   -5.4650 H   0  0  0  0  0  0  0  0  0  0  0  0
   -1.6870   -8.7420   -3.9810 H   0  0  0  0  0  0  0  0  0  0  0  0
   -1.5970   -7.8130   -2.4660 H   0  0  0  0  0  0  0  0  0  0  0  0
   -0.2180   -7.8180   -3.5910 H   0  0  0  0  0  0  0  0  0  0  0  0
    1.0380    5.0250    5.5970 H   0  0  0  0  0  0  0  0  0  0  0  0
    1.2470    6.8630    1.7350 H   0  0  0  0  0  0  0  0  0  0  0  0
    1.3490    7.0420    4.2010 H   0  0  0  0  0  0  0  0  0  0  0  0
  1  2  1  0  0  0  0
  1  5  1  0  0  0  0
  1  6  1  0  0  0  0
  2  3  2  0  0  0  0
  2  7  1  0  0  0  0
  3  8  1  0  0  0  0
  4  6  1  0  0  0  0
  4  8  1  0  0  0  0
  4 10  2  0  0  0  0
  5  9  2  0  0  0  0
  6 11  2  0  0  0  0
  7  9  1  0  0  0  0
  8 13  2  0  0  0  0
  9 15  1  0  0  0  0
 10 14  1  0  0  0  0
 10 29  1  0  0  0  0
 11 30  1  0  0  0  0
 12 16  1  0  0  0  0
 12 17  2  0  0  0  0
 12 20  1  0  0  0  0
 14 16  2  0  0  0  0
 14 19  1  0  0  0  0
 15 22  1  0  0  0  0
 15 23  2  0  0  0  0
 16 31  1  0  0  0  0
 17 18  1  0  0  0  0
 17 21  1  0  0  0  0
 18 19  2  0  0  0  0
 18 32  1  0  0  0  0
 19 33  1  0  0  0  0
 20 24  1  0  0  0  0
 21 25  1  0  0  0  0
 22 27  2  0  0  0  0
 22 34  1  0  0  0  0
 23 26  1  0  0  0  0
 23 35  1  0  0  0  0
 24 36  1  0  0  0  0
 24 37  1  0  0  0  0
 24 38  1  0  0  0  0
 25 39  1  0  0  0  0
 25 40  1  0  0  0  0
 25 41  1  0  0  0  0
 26 28  2  0  0  0  0
 26 42  1  0  0  0  0
 27 28  1  0  0  0  0
 27 43  1  0  0  0  0
 28 44  1  0  0  0  0
M  END
>  <$CLUSTER>
820

>  <INDEX>
61780

$$$$
Specs AO-476/43250091
  MOE2020           3D

 38 41  0  0  0  0  0  0  0  0999 V2000
   -0.5770    0.2370   -0.6070 C   0  0  0  0  0  0  0  0  0  0  0  0
   -0.1030    1.4890   -0.3130 N   0  0  0  0  0  0  0  0  0  0  0  0
    0.0500   -0.6940    0.1390 C   0  0  0  0  0  0  0  0  0  0  0  0
   -0.5290    2.6650   -0.8960 C   0  0  0  0  0  0  0  0  0  0  0  0
    0.8570    1.4010    0.6450 N   0  0  0  0  0  0  0  0  0  0  0  0
    1.0180    0.0770    0.9870 C   0  0  0  0  0  0  0  0  0  0  0  0
   -1.5550    0.1170   -1.5520 N   0  0  0  0  0  0  0  0  0  0  0  0
   -1.6070    2.4820   -1.9400 C   0  0  0  0  0  0  0  0  0  0  0  0
   -2.0550    1.2310   -2.2010 C   0  0  0  0  0  0  0  0  0  0  0  0
   -0.0500   -2.0480    0.2290 N   0  0  0  0  0  0  0  0  0  0  0  0
   -0.8820   -2.5960   -0.5160 N   0  0  0  0  0  0  0  0  0  0  0  0
   -0.0990    3.7810   -0.6190 O   0  0  0  0  0  0  0  0  0  0  0  0
    1.7800   -0.4130    1.8050 O   0  0  0  0  0  0  0  0  0  0  0  0
   -0.4680   -4.8070   -1.4130 C   0  0  0  0  0  0  0  0  0  0  0  0
   -0.9420   -3.9880   -0.3810 C   0  0  0  0  0  0  0  0  0  0  0  0
   -2.1100    3.7130   -2.6400 C   0  0  0  0  0  0  0  0  0  0  0  0
   -0.5390   -6.1970   -1.3020 C   0  0  0  0  0  0  0  0  0  0  0  0
   -3.1450    0.9810   -3.2160 C   0  0  0  0  0  0  0  0  0  0  0  0
    0.0480   -7.1940   -2.5510 Cl  0  0  0  0  0  0  0  0  0  0  0  0
   -1.5820   -5.9710    0.8650 C   0  0  0  0  0  0  0  0  0  0  0  0
   -1.5100   -4.5810    0.7540 C   0  0  0  0  0  0  0  0  0  0  0  0
   -1.0950   -6.7780   -0.1620 C   0  0  0  0  0  0  0  0  0  0  0  0
   -2.9380    3.3990   -3.8880 C   0  0  0  0  0  0  0  0  0  0  0  0
   -3.9000    2.2460   -3.6300 C   0  0  0  0  0  0  0  0  0  0  0  0
    1.3670    2.1780    1.0400 H   0  0  0  0  0  0  0  0  0  0  0  0
   -1.9180   -0.7970   -1.7800 H   0  0  0  0  0  0  0  0  0  0  0  0
   -0.0450   -4.3610   -2.3010 H   0  0  0  0  0  0  0  0  0  0  0  0
   -1.2530    4.3180   -2.9360 H   0  0  0  0  0  0  0  0  0  0  0  0
   -2.7310    4.2780   -1.9450 H   0  0  0  0  0  0  0  0  0  0  0  0
   -3.8600    0.2780   -2.7880 H   0  0  0  0  0  0  0  0  0  0  0  0
   -2.6930    0.5430   -4.1060 H   0  0  0  0  0  0  0  0  0  0  0  0
   -2.0150   -6.4210    1.7460 H   0  0  0  0  0  0  0  0  0  0  0  0
   -1.8950   -3.9590    1.5490 H   0  0  0  0  0  0  0  0  0  0  0  0
   -1.1480   -7.8530   -0.0750 H   0  0  0  0  0  0  0  0  0  0  0  0
   -2.2660    3.1270   -4.7020 H   0  0  0  0  0  0  0  0  0  0  0  0
   -3.5090    4.2840   -4.1680 H   0  0  0  0  0  0  0  0  0  0  0  0
   -4.5870    2.5280   -2.8320 H   0  0  0  0  0  0  0  0  0  0  0  0
   -4.4640    2.0420   -4.5400 H   0  0  0  0  0  0  0  0  0  0  0  0
  1  2  1  0  0  0  0
  1  3  2  0  0  0  0
  1  7  1  0  0  0  0
  2  4  1  0  0  0  0
  2  5  1  0  0  0  0
  3  6  1  0  0  0  0
  3 10  1  0  0  0  0
  4  8  1  0  0  0  0
  4 12  2  0  0  0  0
  5  6  1  0  0  0  0
  5 25  1  0  0  0  0
  6 13  2  0  0  0  0
  7  9  1  0  0  0  0
  7 26  1  0  0  0  0
  8  9  2  0  0  0  0
  8 16  1  0  0  0  0
  9 18  1  0  0  0  0
 10 11  2  0  0  0  0
 11 15  1  0  0  0  0
 14 15  2  0  0  0  0
 14 17  1  0  0  0  0
 14 27  1  0  0  0  0
 15 21  1  0  0  0  0
 16 23  1  0  0  0  0
 16 28  1  0  0  0  0
 16 29  1  0  0  0  0
 17 19  1  0  0  0  0
 17 22  2  0  0  0  0
 18 24  1  0  0  0  0
 18 30  1  0  0  0  0
 18 31  1  0  0  0  0
 20 21  2  0  0  0  0
 20 22  1  0  0  0  0
 20 32  1  0  0  0  0
 21 33  1  0  0  0  0
 22 34  1  0  0  0  0
 23 24  1  0  0  0  0
 23 35  1  0  0  0  0
 23 36  1  0  0  0  0
 24 37  1  0  0  0  0
 24 38  1  0  0  0  0
M  END
>  <$CLUSTER>
821

>  <INDEX>
531146

$$$$
Specs AP-015/15620016
  MOE2020           3D

 22 23  0  0  0  0  0  0  0  0999 V2000
    0.5650   -0.6700    2.0460 N   0  0  0  0  0  0  0  0  0  0  0  0
   -0.2660    0.0850    1.1820 C   0  0  0  0  0  0  0  0  0  0  0  0
    0.1300   -0.1950   -0.1290 N   0  0  0  0  0  0  0  0  0  0  0  0
    1.6030   -1.2550    1.2900 C   0  0  0  0  0  0  0  0  0  0  0  0
    0.7500   -0.3180    3.3170 C   0  0  0  0  0  0  0  0  0  0  0  0
    1.2990   -1.0640   -0.1730 C   0  0  0  0  0  0  0  0  0  0  0  0
    0.9110   -0.0140    4.4250 N   0  0  0  0  0  0  0  0  0  0  0  0
   -1.1510    0.8290    1.5780 O   0  0  0  0  0  0  0  0  0  0  0  0
   -0.4790    0.2820   -1.3310 C   0  0  0  0  0  0  0  0  0  0  0  0
    2.5770   -1.8480    1.7300 O   0  0  0  0  0  0  0  0  0  0  0  0
    0.0490   -0.0750   -2.5850 C   0  0  0  0  0  0  0  0  0  0  0  0
   -1.6150    1.1070   -1.3210 C   0  0  0  0  0  0  0  0  0  0  0  0
   -2.1930    1.5600   -2.5130 C   0  0  0  0  0  0  0  0  0  0  0  0
   -0.5290    0.3780   -3.7760 C   0  0  0  0  0  0  0  0  0  0  0  0
   -1.6510    1.1960   -3.7410 C   0  0  0  0  0  0  0  0  0  0  0  0
    2.1300   -0.5840   -0.6910 H   0  0  0  0  0  0  0  0  0  0  0  0
    1.0690   -2.0130   -0.6570 H   0  0  0  0  0  0  0  0  0  0  0  0
    0.9200   -0.7130   -2.6290 H   0  0  0  0  0  0  0  0  0  0  0  0
   -2.0510    1.3970   -0.3770 H   0  0  0  0  0  0  0  0  0  0  0  0
   -3.0650    2.1960   -2.4790 H   0  0  0  0  0  0  0  0  0  0  0  0
   -0.1010    0.0910   -4.7250 H   0  0  0  0  0  0  0  0  0  0  0  0
   -2.0990    1.5460   -4.6590 H   0  0  0  0  0  0  0  0  0  0  0  0
  1  2  1  0  0  0  0
  1  4  1  0  0  0  0
  1  5  1  0  0  0  0
  2  3  1  0  0  0  0
  2  8  2  0  0  0  0
  3  6  1  0  0  0  0
  3  9  1  0  0  0  0
  4  6  1  0  0  0  0
  4 10  2  0  0  0  0
  5  7  3  0  0  0  0
  6 16  1  0  0  0  0
  6 17  1  0  0  0  0
  9 11  1  0  0  0  0
  9 12  2  0  0  0  0
 11 14  2  0  0  0  0
 11 18  1  0  0  0  0
 12 13  1  0  0  0  0
 12 19  1  0  0  0  0
 13 15  2  0  0  0  0
 13 20  1  0  0  0  0
 14 15  1  0  0  0  0
 14 21  1  0  0  0  0
 15 22  1  0  0  0  0
M  END
>  <$CLUSTER>
822

>  <INDEX>
532094

$$$$
Chemical Block A2903/0122323
  MOE2020           3D

 45 47  0  0  0  0  0  0  0  0999 V2000
   -1.7270   -0.1590    0.3230 S   0  0  0  0  0  0  0  0  0  0  0  0
   -2.1450    1.4000    0.7670 N   0  0  0  0  0  0  0  0  0  0  0  0
    0.0040   -0.0300   -0.0060 C   0  0  0  0  0  0  0  0  0  0  0  0
   -2.2090    4.2910    1.4470 N   0  0  0  0  0  0  0  0  0  0  0  0
    0.4420    0.2930   -1.2940 C   0  0  0  0  0  0  0  0  0  0  0  0
   -2.4130   -0.4580   -0.9230 O   0  0  0  0  0  0  0  0  0  0  0  0
   -1.9210   -1.0130    1.4810 O   0  0  0  0  0  0  0  0  0  0  0  0
   -1.6360    1.9140    2.0670 C   0  0  0  0  0  0  0  0  0  0  0  0
   -2.1190    2.4550   -0.2810 C   0  0  0  0  0  0  0  0  0  0  0  0
    1.8110    0.3660   -1.5580 C   0  0  0  0  0  0  0  0  0  0  0  0
   -1.7020    5.5050    1.6230 C   0  0  0  0  0  0  0  0  0  0  0  0
   -2.7680    3.7750    0.1890 C   0  0  0  0  0  0  0  0  0  0  0  0
   -2.2980    3.2480    2.4790 C   0  0  0  0  0  0  0  0  0  0  0  0
    2.7330    0.1110   -0.5420 C   0  0  0  0  0  0  0  0  0  0  0  0
    0.9250   -0.2930    1.0120 C   0  0  0  0  0  0  0  0  0  0  0  0
    2.2920   -0.2180    0.7410 C   0  0  0  0  0  0  0  0  0  0  0  0
   -1.6520    6.4520    0.5800 C   0  0  0  0  0  0  0  0  0  0  0  0
   -1.1830    5.9260    2.8640 C   0  0  0  0  0  0  0  0  0  0  0  0
    4.0210    0.2030   -0.8810 F   0  0  0  0  0  0  0  0  0  0  0  0
   -1.1180    7.7340    0.7630 C   0  0  0  0  0  0  0  0  0  0  0  0
   -0.6480    7.2070    3.0530 C   0  0  0  0  0  0  0  0  0  0  0  0
   -0.6150    8.1120    2.0010 C   0  0  0  0  0  0  0  0  0  0  0  0
    2.2910    0.7160   -2.9280 C   0  0  0  0  0  0  0  0  0  0  0  0
   -0.0450    9.4760    2.2000 C   0  0  0  0  0  0  0  0  0  0  0  0
   -0.2740    0.4850   -2.0790 H   0  0  0  0  0  0  0  0  0  0  0  0
   -0.5600    2.0690    1.9840 H   0  0  0  0  0  0  0  0  0  0  0  0
   -1.8370    1.1710    2.8390 H   0  0  0  0  0  0  0  0  0  0  0  0
   -2.6600    2.0920   -1.1550 H   0  0  0  0  0  0  0  0  0  0  0  0
   -1.0820    2.6530   -0.5520 H   0  0  0  0  0  0  0  0  0  0  0  0
   -2.6210    4.5260   -0.5870 H   0  0  0  0  0  0  0  0  0  0  0  0
   -3.8350    3.6030    0.3310 H   0  0  0  0  0  0  0  0  0  0  0  0
   -3.3510    3.0600    2.6890 H   0  0  0  0  0  0  0  0  0  0  0  0
   -1.8070    3.6130    3.3810 H   0  0  0  0  0  0  0  0  0  0  0  0
    0.5810   -0.5530    2.0020 H   0  0  0  0  0  0  0  0  0  0  0  0
    3.0090   -0.4150    1.5240 H   0  0  0  0  0  0  0  0  0  0  0  0
   -2.0380    6.1800   -0.3910 H   0  0  0  0  0  0  0  0  0  0  0  0
   -1.1980    5.2380    3.6970 H   0  0  0  0  0  0  0  0  0  0  0  0
   -1.0970    8.4310   -0.0620 H   0  0  0  0  0  0  0  0  0  0  0  0
   -0.2600    7.4910    4.0200 H   0  0  0  0  0  0  0  0  0  0  0  0
    1.4350    0.8790   -3.5820 H   0  0  0  0  0  0  0  0  0  0  0  0
    2.8970   -0.1000   -3.3200 H   0  0  0  0  0  0  0  0  0  0  0  0
    2.8910    1.6250   -2.8820 H   0  0  0  0  0  0  0  0  0  0  0  0
   -0.1070   10.0350    1.2670 H   0  0  0  0  0  0  0  0  0  0  0  0
    0.9980    9.3930    2.5050 H   0  0  0  0  0  0  0  0  0  0  0  0
   -0.6090    9.9960    2.9740 H   0  0  0  0  0  0  0  0  0  0  0  0
  1  2  1  0  0  0  0
  1  3  1  0  0  0  0
  1  6  2  0  0  0  0
  1  7  2  0  0  0  0
  2  8  1  0  0  0  0
  2  9  1  0  0  0  0
  3  5  1  0  0  0  0
  3 15  2  0  0  0  0
  4 11  1  0  0  0  0
  4 12  1  0  0  0  0
  4 13  1  0  0  0  0
  5 10  2  0  0  0  0
  5 25  1  0  0  0  0
  8 13  1  0  0  0  0
  8 26  1  0  0  0  0
  8 27  1  0  0  0  0
  9 12  1  0  0  0  0
  9 28  1  0  0  0  0
  9 29  1  0  0  0  0
 10 14  1  0  0  0  0
 10 23  1  0  0  0  0
 11 17  2  0  0  0  0
 11 18  1  0  0  0  0
 12 30  1  0  0  0  0
 12 31  1  0  0  0  0
 13 32  1  0  0  0  0
 13 33  1  0  0  0  0
 14 16  2  0  0  0  0
 14 19  1  0  0  0  0
 15 16  1  0  0  0  0
 15 34  1  0  0  0  0
 16 35  1  0  0  0  0
 17 20  1  0  0  0  0
 17 36  1  0  0  0  0
 18 21  2  0  0  0  0
 18 37  1  0  0  0  0
 20 22  2  0  0  0  0
 20 38  1  0  0  0  0
 21 22  1  0  0  0  0
 21 39  1  0  0  0  0
 22 24  1  0  0  0  0
 23 40  1  0  0  0  0
 23 41  1  0  0  0  0
 23 42  1  0  0  0  0
 24 43  1  0  0  0  0
 24 44  1  0  0  0  0
 24 45  1  0  0  0  0
M  END
>  <$CLUSTER>
823

>  <INDEX>
113811

$$$$
Specs AP-501/40804743
  MOE2020           3D

 44 46  0  0  0  0  0  0  0  0999 V2000
   -0.2840   -0.4640   -0.6570 N   0  0  0  0  0  0  0  0  0  0  0  0
   -1.4900    0.1090   -1.0390 C   0  0  0  0  0  0  0  0  0  0  0  0
    0.1970   -1.2890   -1.6280 N   0  0  0  0  0  0  0  0  0  0  0  0
   -1.7780   -0.3730   -2.2940 C   0  0  0  0  0  0  0  0  0  0  0  0
    0.4310   -0.2750    0.5640 C   0  0  0  0  0  0  0  0  0  0  0  0
   -0.0600    0.5490    1.5200 N   0  0  0  0  0  0  0  0  0  0  0  0
   -0.7090   -1.2240   -2.6030 C   0  0  0  0  0  0  0  0  0  0  0  0
    1.8410    0.0670    2.9130 N   0  0  0  0  0  0  0  0  0  0  0  0
    0.6740    0.6730    2.6430 C   0  0  0  0  0  0  0  0  0  0  0  0
    2.2930   -0.7420    1.9370 C   0  0  0  0  0  0  0  0  0  0  0  0
    1.6320   -0.9530    0.7400 C   0  0  0  0  0  0  0  0  0  0  0  0
   -2.8460   -0.0710   -3.0190 C   0  0  0  0  0  0  0  0  0  0  0  0
   -3.7690    0.1710   -3.6840 N   0  0  0  0  0  0  0  0  0  0  0  0
    5.7290   -1.3290    4.9870 C   0  0  0  0  0  0  0  0  0  0  0  0
    3.5070   -1.4000    2.0820 O   0  0  0  0  0  0  0  0  0  0  0  0
   -2.1870    0.9650   -0.2700 N   0  0  0  0  0  0  0  0  0  0  0  0
    5.2090   -1.0930    3.7130 C   0  0  0  0  0  0  0  0  0  0  0  0
    3.9540   -1.6030    3.3730 C   0  0  0  0  0  0  0  0  0  0  0  0
    5.0050   -2.0870    5.9100 C   0  0  0  0  0  0  0  0  0  0  0  0
   -0.0210    1.7800    3.8850 S   0  0  0  0  0  0  0  0  0  0  0  0
    3.7620   -2.6170    5.5590 C   0  0  0  0  0  0  0  0  0  0  0  0
    3.2360   -2.3850    4.2870 C   0  0  0  0  0  0  0  0  0  0  0  0
   -0.5910   -1.9710   -3.8650 C   0  0  0  0  0  0  0  0  0  0  0  0
    7.0620   -0.7680    5.3620 C   0  0  0  0  0  0  0  0  0  0  0  0
    5.5600   -2.3330    7.2750 C   0  0  0  0  0  0  0  0  0  0  0  0
    1.2460    1.6520    5.1770 C   0  0  0  0  0  0  0  0  0  0  0  0
    2.0290   -1.6110   -0.0190 H   0  0  0  0  0  0  0  0  0  0  0  0
   -3.0600    1.3480   -0.6040 H   0  0  0  0  0  0  0  0  0  0  0  0
   -1.8370    1.2250    0.6410 H   0  0  0  0  0  0  0  0  0  0  0  0
    5.7740   -0.5190    2.9940 H   0  0  0  0  0  0  0  0  0  0  0  0
    3.2070   -3.2070    6.2730 H   0  0  0  0  0  0  0  0  0  0  0  0
    2.2810   -2.8060    4.0090 H   0  0  0  0  0  0  0  0  0  0  0  0
    0.3280   -2.5570   -3.8560 H   0  0  0  0  0  0  0  0  0  0  0  0
   -0.5680   -1.2710   -4.7010 H   0  0  0  0  0  0  0  0  0  0  0  0
   -1.4460   -2.6380   -3.9730 H   0  0  0  0  0  0  0  0  0  0  0  0
    7.4720   -0.2100    4.5200 H   0  0  0  0  0  0  0  0  0  0  0  0
    7.7390   -1.5820    5.6220 H   0  0  0  0  0  0  0  0  0  0  0  0
    6.9480   -0.1020    6.2180 H   0  0  0  0  0  0  0  0  0  0  0  0
    6.5310   -1.8460    7.3660 H   0  0  0  0  0  0  0  0  0  0  0  0
    5.6760   -3.4050    7.4320 H   0  0  0  0  0  0  0  0  0  0  0  0
    4.8790   -1.9270    8.0230 H   0  0  0  0  0  0  0  0  0  0  0  0
    0.9670    2.2810    6.0230 H   0  0  0  0  0  0  0  0  0  0  0  0
    2.2050    1.9830    4.7790 H   0  0  0  0  0  0  0  0  0  0  0  0
    1.3270    0.6160    5.5060 H   0  0  0  0  0  0  0  0  0  0  0  0
  1  2  1  0  0  0  0
  1  3  1  0  0  0  0
  1  5  1  0  0  0  0
  2  4  2  0  0  0  0
  2 16  1  0  0  0  0
  3  7  2  0  0  0  0
  4  7  1  0  0  0  0
  4 12  1  0  0  0  0
  5  6  1  0  0  0  0
  5 11  2  0  0  0  0
  6  9  2  0  0  0  0
  7 23  1  0  0  0  0
  8  9  1  0  0  0  0
  8 10  2  0  0  0  0
  9 20  1  0  0  0  0
 10 11  1  0  0  0  0
 10 15  1  0  0  0  0
 11 27  1  0  0  0  0
 12 13  3  0  0  0  0
 14 17  2  0  0  0  0
 14 19  1  0  0  0  0
 14 24  1  0  0  0  0
 15 18  1  0  0  0  0
 16 28  1  0  0  0  0
 16 29  1  0  0  0  0
 17 18  1  0  0  0  0
 17 30  1  0  0  0  0
 18 22  2  0  0  0  0
 19 21  2  0  0  0  0
 19 25  1  0  0  0  0
 20 26  1  0  0  0  0
 21 22  1  0  0  0  0
 21 31  1  0  0  0  0
 22 32  1  0  0  0  0
 23 33  1  0  0  0  0
 23 34  1  0  0  0  0
 23 35  1  0  0  0  0
 24 36  1  0  0  0  0
 24 37  1  0  0  0  0
 24 38  1  0  0  0  0
 25 39  1  0  0  0  0
 25 40  1  0  0  0  0
 25 41  1  0  0  0  0
 26 42  1  0  0  0  0
 26 43  1  0  0  0  0
 26 44  1  0  0  0  0
M  END
>  <$CLUSTER>
824

>  <INDEX>
532645

$$$$
Specs AP-501/42239295
  MOE2020           3D

 42 45  0  0  0  0  0  0  0  0999 V2000
   -0.5480   -0.0140    0.4190 N   0  0  0  0  0  0  0  0  0  0  0  0
    0.1410   -0.4830   -0.6450 C   0  0  0  0  0  0  0  0  0  0  0  0
    1.0780    1.3550    0.5630 C   0  0  0  0  0  0  0  0  0  0  0  0
   -0.0480    1.0250    1.1320 N   0  0  0  0  0  0  0  0  0  0  0  0
    1.9560    2.3980    0.9720 C   0  0  0  0  0  0  0  0  0  0  0  0
    1.5770    0.4110   -0.8680 S   0  0  0  0  0  0  0  0  0  0  0  0
   -1.6770   -0.7930    0.5120 C   0  0  0  0  0  0  0  0  0  0  0  0
   -1.6100   -1.6970   -0.4640 N   0  0  0  0  0  0  0  0  0  0  0  0
    1.5910    3.6170    1.5080 N   0  0  0  0  0  0  0  0  0  0  0  0
   -0.4540   -1.4920   -1.2060 N   0  0  0  0  0  0  0  0  0  0  0  0
    2.6310    4.3970    1.8650 N   0  0  0  0  0  0  0  0  0  0  0  0
    3.3410    2.4480    0.9370 C   0  0  0  0  0  0  0  0  0  0  0  0
    3.6950    3.6840    1.5000 C   0  0  0  0  0  0  0  0  0  0  0  0
   -2.7410   -0.6790    1.5100 C   0  0  0  0  0  0  0  0  0  0  0  0
   -3.0350    0.5270    2.1610 C   0  0  0  0  0  0  0  0  0  0  0  0
   -3.5160   -1.8090    1.8190 C   0  0  0  0  0  0  0  0  0  0  0  0
    0.2580    4.1350    1.7050 C   0  0  0  0  0  0  0  0  0  0  0  0
   -4.0640    0.5980    3.1040 C   0  0  0  0  0  0  0  0  0  0  0  0
   -4.5440   -1.7370    2.7620 C   0  0  0  0  0  0  0  0  0  0  0  0
   -4.8170   -0.5340    3.4060 C   0  0  0  0  0  0  0  0  0  0  0  0
    5.0670    4.2260    1.7150 C   0  0  0  0  0  0  0  0  0  0  0  0
   -5.9130   -0.4540    4.4170 C   0  0  0  0  0  0  0  0  0  0  0  0
    5.6230    3.8720    3.0870 C   0  0  0  0  0  0  0  0  0  0  0  0
    7.0230    4.4250    3.3060 C   0  0  0  0  0  0  0  0  0  0  0  0
    4.0100    1.6910    0.5550 H   0  0  0  0  0  0  0  0  0  0  0  0
   -2.4600    1.4120    1.9310 H   0  0  0  0  0  0  0  0  0  0  0  0
   -3.3140   -2.7460    1.3210 H   0  0  0  0  0  0  0  0  0  0  0  0
   -0.4720    3.3970    1.3720 H   0  0  0  0  0  0  0  0  0  0  0  0
    0.1360    5.0520    1.1290 H   0  0  0  0  0  0  0  0  0  0  0  0
    0.1030    4.3470    2.7630 H   0  0  0  0  0  0  0  0  0  0  0  0
   -4.2760    1.5340    3.6000 H   0  0  0  0  0  0  0  0  0  0  0  0
   -5.1280   -2.6160    2.9920 H   0  0  0  0  0  0  0  0  0  0  0  0
    5.0330    5.3110    1.6200 H   0  0  0  0  0  0  0  0  0  0  0  0
    5.7290    3.8150    0.9530 H   0  0  0  0  0  0  0  0  0  0  0  0
   -5.9730    0.5620    4.8080 H   0  0  0  0  0  0  0  0  0  0  0  0
   -5.7050   -1.1460    5.2330 H   0  0  0  0  0  0  0  0  0  0  0  0
   -6.8600   -0.7200    3.9480 H   0  0  0  0  0  0  0  0  0  0  0  0
    5.6570    2.7870    3.1820 H   0  0  0  0  0  0  0  0  0  0  0  0
    4.9610    4.2830    3.8490 H   0  0  0  0  0  0  0  0  0  0  0  0
    7.6960    4.0210    2.5490 H   0  0  0  0  0  0  0  0  0  0  0  0
    7.3760    4.1380    4.2960 H   0  0  0  0  0  0  0  0  0  0  0  0
    7.0000    5.5120    3.2300 H   0  0  0  0  0  0  0  0  0  0  0  0
  1  2  1  0  0  0  0
  1  4  1  0  0  0  0
  1  7  1  0  0  0  0
  2  6  1  0  0  0  0
  2 10  2  0  0  0  0
  3  4  2  0  0  0  0
  3  5  1  0  0  0  0
  3  6  1  0  0  0  0
  5  9  1  0  0  0  0
  5 12  2  0  0  0  0
  7  8  2  0  0  0  0
  7 14  1  0  0  0  0
  8 10  1  0  0  0  0
  9 11  1  0  0  0  0
  9 17  1  0  0  0  0
 11 13  2  0  0  0  0
 12 13  1  0  0  0  0
 12 25  1  0  0  0  0
 13 21  1  0  0  0  0
 14 15  2  0  0  0  0
 14 16  1  0  0  0  0
 15 18  1  0  0  0  0
 15 26  1  0  0  0  0
 16 19  2  0  0  0  0
 16 27  1  0  0  0  0
 17 28  1  0  0  0  0
 17 29  1  0  0  0  0
 17 30  1  0  0  0  0
 18 20  2  0  0  0  0
 18 31  1  0  0  0  0
 19 20  1  0  0  0  0
 19 32  1  0  0  0  0
 20 22  1  0  0  0  0
 21 23  1  0  0  0  0
 21 33  1  0  0  0  0
 21 34  1  0  0  0  0
 22 35  1  0  0  0  0
 22 36  1  0  0  0  0
 22 37  1  0  0  0  0
 23 24  1  0  0  0  0
 23 38  1  0  0  0  0
 23 39  1  0  0  0  0
 24 40  1  0  0  0  0
 24 41  1  0  0  0  0
 24 42  1  0  0  0  0
M  END
>  <$CLUSTER>
825

>  <INDEX>
532838

$$$$
Specs AP-866/42442546
  MOE2020           3D

 39 40  0  0  0  0  0  0  0  0999 V2000
    3.0750    2.5510   -0.3010 S   0  0  0  0  0  0  0  0  0  0  0  0
   -1.7120    0.0990    0.4150 S   0  0  0  0  0  0  0  0  0  0  0  0
    2.1580    1.0310   -0.2030 C   0  0  0  0  0  0  0  0  0  0  0  0
    5.8440   -1.5840    3.2050 C   0  0  0  0  0  0  0  0  0  0  0  0
    0.7880    1.1270    0.0390 C   0  0  0  0  0  0  0  0  0  0  0  0
    3.9540    2.5640    1.1220 N   0  0  0  0  0  0  0  0  0  0  0  0
    0.0180   -0.0360    0.0860 C   0  0  0  0  0  0  0  0  0  0  0  0
    5.9490   -0.4060    2.2830 C   0  0  0  0  0  0  0  0  0  0  0  0
    2.1470    3.6660   -0.2280 O   0  0  0  0  0  0  0  0  0  0  0  0
    4.0080    2.4720   -1.4100 O   0  0  0  0  0  0  0  0  0  0  0  0
   -2.2330   -1.2350    0.6450 O   0  0  0  0  0  0  0  0  0  0  0  0
   -1.8820    1.1380    1.4120 O   0  0  0  0  0  0  0  0  0  0  0  0
    2.7500   -0.2190   -0.3900 C   0  0  0  0  0  0  0  0  0  0  0  0
    5.0430    1.6060    1.2950 C   0  0  0  0  0  0  0  0  0  0  0  0
    4.9100    0.5180    2.1640 C   0  0  0  0  0  0  0  0  0  0  0  0
    0.6010   -1.2900   -0.0930 C   0  0  0  0  0  0  0  0  0  0  0  0
    6.8420   -1.5650    4.1300 F   0  0  0  0  0  0  0  0  0  0  0  0
    5.9720   -2.7500    2.5150 F   0  0  0  0  0  0  0  0  0  0  0  0
    4.6750   -1.6730    3.8990 F   0  0  0  0  0  0  0  0  0  0  0  0
    1.9720   -1.3770   -0.3340 C   0  0  0  0  0  0  0  0  0  0  0  0
   -2.3850    0.6810   -1.1190 C   0  0  0  0  0  0  0  0  0  0  0  0
    7.1160   -0.2470    1.5370 C   0  0  0  0  0  0  0  0  0  0  0  0
    7.2470    0.8380    0.6710 C   0  0  0  0  0  0  0  0  0  0  0  0
    6.2120    1.7660    0.5480 C   0  0  0  0  0  0  0  0  0  0  0  0
    4.2470   -0.4000   -0.6690 C   0  0  0  0  0  0  0  0  0  0  0  0
    0.3270    2.0920    0.1890 H   0  0  0  0  0  0  0  0  0  0  0  0
    3.7350    3.2260    1.8530 H   0  0  0  0  0  0  0  0  0  0  0  0
    4.0060    0.3930    2.7410 H   0  0  0  0  0  0  0  0  0  0  0  0
   -0.0030   -2.1840   -0.0460 H   0  0  0  0  0  0  0  0  0  0  0  0
    2.4330   -2.3430   -0.4780 H   0  0  0  0  0  0  0  0  0  0  0  0
   -2.2660   -0.0880   -1.8830 H   0  0  0  0  0  0  0  0  0  0  0  0
   -1.8580    1.5840   -1.4280 H   0  0  0  0  0  0  0  0  0  0  0  0
   -3.4440    0.9040   -0.9900 H   0  0  0  0  0  0  0  0  0  0  0  0
    7.9180   -0.9640    1.6300 H   0  0  0  0  0  0  0  0  0  0  0  0
    8.1520    0.9600    0.0940 H   0  0  0  0  0  0  0  0  0  0  0  0
    6.3150    2.6060   -0.1230 H   0  0  0  0  0  0  0  0  0  0  0  0
    4.7340    0.5750   -0.6860 H   0  0  0  0  0  0  0  0  0  0  0  0
    4.3800   -0.8900   -1.6340 H   0  0  0  0  0  0  0  0  0  0  0  0
    4.6910   -1.0140    0.1150 H   0  0  0  0  0  0  0  0  0  0  0  0
  1  3  1  0  0  0  0
  1  6  1  0  0  0  0
  1  9  2  0  0  0  0
  1 10  2  0  0  0  0
  2  7  1  0  0  0  0
  2 11  2  0  0  0  0
  2 12  2  0  0  0  0
  2 21  1  0  0  0  0
  3  5  2  0  0  0  0
  3 13  1  0  0  0  0
  4  8  1  0  0  0  0
  4 17  1  0  0  0  0
  4 18  1  0  0  0  0
  4 19  1  0  0  0  0
  5  7  1  0  0  0  0
  5 26  1  0  0  0  0
  6 14  1  0  0  0  0
  6 27  1  0  0  0  0
  7 16  2  0  0  0  0
  8 15  2  0  0  0  0
  8 22  1  0  0  0  0
 13 20  2  0  0  0  0
 13 25  1  0  0  0  0
 14 15  1  0  0  0  0
 14 24  2  0  0  0  0
 15 28  1  0  0  0  0
 16 20  1  0  0  0  0
 16 29  1  0  0  0  0
 20 30  1  0  0  0  0
 21 31  1  0  0  0  0
 21 32  1  0  0  0  0
 21 33  1  0  0  0  0
 22 23  2  0  0  0  0
 22 34  1  0  0  0  0
 23 24  1  0  0  0  0
 23 35  1  0  0  0  0
 24 36  1  0  0  0  0
 25 37  1  0  0  0  0
 25 38  1  0  0  0  0
 25 39  1  0  0  0  0
M  END
>  <$CLUSTER>
826

>  <INDEX>
533907

$$$$
Specs AP-970/42898398
  MOE2020           3D

 56 58  0  0  0  0  0  0  0  0999 V2000
    0.3340   -0.3370    0.6060 S   0  0  0  0  0  0  0  0  0  0  0  0
   -0.7940    0.1700   -0.5670 N   0  0  0  0  0  0  0  0  0  0  0  0
   -2.1930    1.4020   -2.8540 N   0  0  0  0  0  0  0  0  0  0  0  0
   -1.4440    2.2610   -4.9750 C   0  0  0  0  0  0  0  0  0  0  0  0
   -2.3910    2.1450   -3.9240 C   0  0  0  0  0  0  0  0  0  0  0  0
   -0.1640    1.6680   -4.8040 N   0  0  0  0  0  0  0  0  0  0  0  0
   -1.1990    1.5890   -0.5390 C   0  0  0  0  0  0  0  0  0  0  0  0
   -0.6120   -0.3430   -1.9390 C   0  0  0  0  0  0  0  0  0  0  0  0
    0.8680    1.5700   -5.7270 C   0  0  0  0  0  0  0  0  0  0  0  0
   -0.0860    0.2050    1.8870 O   0  0  0  0  0  0  0  0  0  0  0  0
    0.5150   -1.7710    0.4550 O   0  0  0  0  0  0  0  0  0  0  0  0
   -2.4040    1.8610   -1.4740 C   0  0  0  0  0  0  0  0  0  0  0  0
   -1.8310   -0.0220   -2.8390 C   0  0  0  0  0  0  0  0  0  0  0  0
    0.8750    1.9320   -6.8990 O   0  0  0  0  0  0  0  0  0  0  0  0
    1.8420    0.4890    0.0980 C   0  0  0  0  0  0  0  0  0  0  0  0
    3.1320    0.7970   -6.0570 O   0  0  0  0  0  0  0  0  0  0  0  0
    2.0760    0.8990   -5.1220 C   0  0  0  0  0  0  0  0  0  0  0  0
    4.2910    0.2220   -5.6780 C   0  0  0  0  0  0  0  0  0  0  0  0
    6.7860   -0.9310   -5.1310 C   0  0  0  0  0  0  0  0  0  0  0  0
    5.2790    0.1630   -6.6670 C   0  0  0  0  0  0  0  0  0  0  0  0
    4.5620   -0.3030   -4.4110 C   0  0  0  0  0  0  0  0  0  0  0  0
    6.5220   -0.4100   -6.3960 C   0  0  0  0  0  0  0  0  0  0  0  0
    5.8080   -0.8770   -4.1410 C   0  0  0  0  0  0  0  0  0  0  0  0
   -1.7620    3.0150   -6.1170 C   0  0  0  0  0  0  0  0  0  0  0  0
   -3.6080    2.8490   -4.0540 C   0  0  0  0  0  0  0  0  0  0  0  0
    8.1430   -1.5410   -4.8270 C   0  0  0  0  0  0  0  0  0  0  0  0
   -2.9860    3.6770   -6.2220 C   0  0  0  0  0  0  0  0  0  0  0  0
    9.1240   -0.5030   -4.3020 C   0  0  0  0  0  0  0  0  0  0  0  0
   -3.9050    3.6030   -5.1880 C   0  0  0  0  0  0  0  0  0  0  0  0
    0.0180    1.2670   -3.8950 H   0  0  0  0  0  0  0  0  0  0  0  0
   -0.3570    2.2030   -0.8600 H   0  0  0  0  0  0  0  0  0  0  0  0
   -1.4760    1.8570    0.4810 H   0  0  0  0  0  0  0  0  0  0  0  0
   -0.4790   -1.4240   -1.8970 H   0  0  0  0  0  0  0  0  0  0  0  0
    0.2770    0.1150   -2.3720 H   0  0  0  0  0  0  0  0  0  0  0  0
   -3.2770    1.3480   -1.0700 H   0  0  0  0  0  0  0  0  0  0  0  0
   -2.5900    2.9350   -1.4930 H   0  0  0  0  0  0  0  0  0  0  0  0
   -1.5970   -0.3290   -3.8580 H   0  0  0  0  0  0  0  0  0  0  0  0
   -2.6870   -0.5910   -2.4760 H   0  0  0  0  0  0  0  0  0  0  0  0
    1.7200    1.5670    0.2060 H   0  0  0  0  0  0  0  0  0  0  0  0
    2.0540    0.2500   -0.9440 H   0  0  0  0  0  0  0  0  0  0  0  0
    2.6690    0.1520    0.7230 H   0  0  0  0  0  0  0  0  0  0  0  0
    1.7970   -0.1020   -4.7910 H   0  0  0  0  0  0  0  0  0  0  0  0
    2.4150    1.4830   -4.2670 H   0  0  0  0  0  0  0  0  0  0  0  0
    5.0780    0.5650   -7.6490 H   0  0  0  0  0  0  0  0  0  0  0  0
    3.8070   -0.2650   -3.6390 H   0  0  0  0  0  0  0  0  0  0  0  0
    7.2790   -0.4500   -7.1660 H   0  0  0  0  0  0  0  0  0  0  0  0
    6.0130   -1.2800   -3.1600 H   0  0  0  0  0  0  0  0  0  0  0  0
   -1.0490    3.0830   -6.9250 H   0  0  0  0  0  0  0  0  0  0  0  0
   -4.3290    2.8020   -3.2520 H   0  0  0  0  0  0  0  0  0  0  0  0
    8.5460   -1.9770   -5.7410 H   0  0  0  0  0  0  0  0  0  0  0  0
    8.0190   -2.3210   -4.0760 H   0  0  0  0  0  0  0  0  0  0  0  0
   -3.2170    4.2470   -7.1100 H   0  0  0  0  0  0  0  0  0  0  0  0
    9.2550    0.2820   -5.0470 H   0  0  0  0  0  0  0  0  0  0  0  0
   10.0840   -0.9790   -4.1030 H   0  0  0  0  0  0  0  0  0  0  0  0
    8.7350   -0.0690   -3.3810 H   0  0  0  0  0  0  0  0  0  0  0  0
   -4.8470    4.1270   -5.2600 H   0  0  0  0  0  0  0  0  0  0  0  0
  1  2  1  0  0  0  0
  1 10  2  0  0  0  0
  1 11  2  0  0  0  0
  1 15  1  0  0  0  0
  2  7  1  0  0  0  0
  2  8  1  0  0  0  0
  3  5  1  0  0  0  0
  3 12  1  0  0  0  0
  3 13  1  0  0  0  0
  4  5  2  0  0  0  0
  4  6  1  0  0  0  0
  4 24  1  0  0  0  0
  5 25  1  0  0  0  0
  6  9  1  0  0  0  0
  6 30  1  0  0  0  0
  7 12  1  0  0  0  0
  7 31  1  0  0  0  0
  7 32  1  0  0  0  0
  8 13  1  0  0  0  0
  8 33  1  0  0  0  0
  8 34  1  0  0  0  0
  9 14  2  0  0  0  0
  9 17  1  0  0  0  0
 12 35  1  0  0  0  0
 12 36  1  0  0  0  0
 13 37  1  0  0  0  0
 13 38  1  0  0  0  0
 15 39  1  0  0  0  0
 15 40  1  0  0  0  0
 15 41  1  0  0  0  0
 16 17  1  0  0  0  0
 16 18  1  0  0  0  0
 17 42  1  0  0  0  0
 17 43  1  0  0  0  0
 18 20  2  0  0  0  0
 18 21  1  0  0  0  0
 19 22  2  0  0  0  0
 19 23  1  0  0  0  0
 19 26  1  0  0  0  0
 20 22  1  0  0  0  0
 20 44  1  0  0  0  0
 21 23  2  0  0  0  0
 21 45  1  0  0  0  0
 22 46  1  0  0  0  0
 23 47  1  0  0  0  0
 24 27  2  0  0  0  0
 24 48  1  0  0  0  0
 25 29  2  0  0  0  0
 25 49  1  0  0  0  0
 26 28  1  0  0  0  0
 26 50  1  0  0  0  0
 26 51  1  0  0  0  0
 27 29  1  0  0  0  0
 27 52  1  0  0  0  0
 28 53  1  0  0  0  0
 28 54  1  0  0  0  0
 28 55  1  0  0  0  0
 29 56  1  0  0  0  0
M  END
>  <$CLUSTER>
827

>  <INDEX>
534106

$$$$
Chembridge 5460363
  MOE2020           3D

 48 49  0  0  1  0  0  0  0  0999 V2000
   -1.1950    1.3340   -0.2740 N   0  0  0  0  0  0  0  0  0  0  0  0
   -2.3680    1.7750   -0.8090 C   0  0  0  0  0  0  0  0  0  0  0  0
    1.2270   -2.1060    0.1000 N   0  3  3  0  0  0  0  0  0  0  0  0
    0.8000   -0.6870    0.2340 C   0  0  0  0  0  0  0  0  0  0  0  0
    0.6200   -0.0750   -1.1560 C   0  0  0  0  0  0  0  0  0  0  0  0
   -0.4920   -0.6180    1.0500 C   0  0  0  0  0  0  0  0  0  0  0  0
    0.0550    1.3370   -1.0370 C   0  0  0  0  0  0  0  0  0  0  0  0
   -1.0140    0.8150    1.0830 C   0  0  0  0  0  0  0  0  0  0  0  0
   -2.5180    2.2100   -1.9470 O   0  0  0  0  0  0  0  0  0  0  0  0
    0.4430   -3.0040   -0.8530 C   0  0  0  0  0  0  0  0  0  0  0  0
   -3.4200    1.6950    0.0490 O   0  0  0  0  0  0  0  0  0  0  0  0
    0.4530   -4.4670   -0.4190 C   0  0  0  0  0  0  0  0  0  0  0  0
    2.7540   -2.2740   -0.1260 C   0  0  0  0  0  0  0  0  0  0  0  0
   -4.6940    2.1190   -0.3800 C   0  0  0  0  0  0  0  0  0  0  0  0
    1.4820   -5.3070   -0.8380 C   0  0  0  0  0  0  0  0  0  0  0  0
   -0.5210   -4.9350    0.4610 C   0  0  0  0  0  0  0  0  0  0  0  0
    3.5220   -2.1090    1.1820 C   0  0  0  0  0  0  0  0  0  0  0  0
   -5.6880    1.9320    0.7480 C   0  0  0  0  0  0  0  0  0  0  0  0
   -0.4910   -6.2650    0.8830 C   0  0  0  0  0  0  0  0  0  0  0  0
    1.5090   -6.6360   -0.4140 C   0  0  0  0  0  0  0  0  0  0  0  0
    0.5220   -7.1150    0.4440 C   0  0  0  0  0  0  0  0  0  0  0  0
    0.9810   -2.4520    1.0160 H   0  0  0  0  0  0  0  0  0  0  0  0
    1.5630   -0.1130    0.7600 H   0  0  0  0  0  0  0  0  0  0  0  0
   -0.0680   -0.6910   -1.7350 H   0  0  0  0  0  0  0  0  0  0  0  0
    1.5850   -0.0360   -1.6610 H   0  0  0  0  0  0  0  0  0  0  0  0
   -0.2940   -0.9530    2.0680 H   0  0  0  0  0  0  0  0  0  0  0  0
   -1.2420   -1.2650    0.5940 H   0  0  0  0  0  0  0  0  0  0  0  0
    0.7820    1.9710   -0.5300 H   0  0  0  0  0  0  0  0  0  0  0  0
   -0.1370    1.7310   -2.0350 H   0  0  0  0  0  0  0  0  0  0  0  0
   -1.9710    0.8350    1.6040 H   0  0  0  0  0  0  0  0  0  0  0  0
   -0.2990    1.4440    1.6140 H   0  0  0  0  0  0  0  0  0  0  0  0
    0.8860   -2.9310   -1.8460 H   0  0  0  0  0  0  0  0  0  0  0  0
   -0.5900   -2.6570   -0.8900 H   0  0  0  0  0  0  0  0  0  0  0  0
    3.0940   -1.5210   -0.8360 H   0  0  0  0  0  0  0  0  0  0  0  0
    2.9470   -3.2680   -0.5300 H   0  0  0  0  0  0  0  0  0  0  0  0
   -5.0040    1.5270   -1.2410 H   0  0  0  0  0  0  0  0  0  0  0  0
   -4.6530    3.1720   -0.6590 H   0  0  0  0  0  0  0  0  0  0  0  0
    2.2570   -4.9310   -1.4890 H   0  0  0  0  0  0  0  0  0  0  0  0
   -1.2960   -4.2710    0.8150 H   0  0  0  0  0  0  0  0  0  0  0  0
    3.3330   -1.1170    1.5920 H   0  0  0  0  0  0  0  0  0  0  0  0
    4.5890   -2.2270    0.9940 H   0  0  0  0  0  0  0  0  0  0  0  0
    3.1920   -2.8650    1.8950 H   0  0  0  0  0  0  0  0  0  0  0  0
   -5.7280    0.8790    1.0260 H   0  0  0  0  0  0  0  0  0  0  0  0
   -6.6750    2.2590    0.4210 H   0  0  0  0  0  0  0  0  0  0  0  0
   -5.3760    2.5230    1.6090 H   0  0  0  0  0  0  0  0  0  0  0  0
   -1.2540   -6.6360    1.5510 H   0  0  0  0  0  0  0  0  0  0  0  0
    2.2960   -7.2940   -0.7510 H   0  0  0  0  0  0  0  0  0  0  0  0
    0.5420   -8.1450    0.7690 H   0  0  0  0  0  0  0  0  0  0  0  0
  1  2  1  0  0  0  0
  1  7  1  0  0  0  0
  1  8  1  0  0  0  0
  2  9  2  0  0  0  0
  2 11  1  0  0  0  0
  3  4  1  0  0  0  0
  3 10  1  0  0  0  0
  3 13  1  0  0  0  0
  3 22  1  0  0  0  0
  4  5  1  0  0  0  0
  4  6  1  0  0  0  0
  4 23  1  0  0  0  0
  5  7  1  0  0  0  0
  5 24  1  0  0  0  0
  5 25  1  0  0  0  0
  6  8  1  0  0  0  0
  6 26  1  0  0  0  0
  6 27  1  0  0  0  0
  7 28  1  0  0  0  0
  7 29  1  0  0  0  0
  8 30  1  0  0  0  0
  8 31  1  0  0  0  0
 10 12  1  0  0  0  0
 10 32  1  0  0  0  0
 10 33  1  0  0  0  0
 11 14  1  0  0  0  0
 12 15  1  0  0  0  0
 12 16  2  0  0  0  0
 13 17  1  0  0  0  0
 13 34  1  0  0  0  0
 13 35  1  0  0  0  0
 14 18  1  0  0  0  0
 14 36  1  0  0  0  0
 14 37  1  0  0  0  0
 15 20  2  0  0  0  0
 15 38  1  0  0  0  0
 16 19  1  0  0  0  0
 16 39  1  0  0  0  0
 17 40  1  0  0  0  0
 17 41  1  0  0  0  0
 17 42  1  0  0  0  0
 18 43  1  0  0  0  0
 18 44  1  0  0  0  0
 18 45  1  0  0  0  0
 19 21  2  0  0  0  0
 19 46  1  0  0  0  0
 20 21  1  0  0  0  0
 20 47  1  0  0  0  0
 21 48  1  0  0  0  0
M  CHG  1   3   1
M  END
>  <$CLUSTER>
828

>  <INDEX>
46193

$$$$
Chemdiv 8005-4355
  MOE2020           3D

 46 48  0  0  0  0  0  0  0  0999 V2000
   -0.9480    4.9760   -7.3100 C   0  0  0  0  0  0  0  0  0  0  0  0
   -0.5790    0.1450    0.1350 N   0  0  0  0  0  0  0  0  0  0  0  0
   -1.4740    1.5620   -1.5690 C   0  0  0  0  0  0  0  0  0  0  0  0
   -0.3260    0.8830   -0.9750 N   0  0  0  0  0  0  0  0  0  0  0  0
   -0.1410    4.6070   -6.2410 N   0  0  0  0  0  0  0  0  0  0  0  0
    0.4150   -0.5610    0.5970 C   0  0  0  0  0  0  0  0  0  0  0  0
   -1.0380    2.3480   -2.8040 C   0  0  0  0  0  0  0  0  0  0  0  0
    0.1590   -1.4260    1.8090 C   0  0  0  0  0  0  0  0  0  0  0  0
   -2.1330    4.7170   -7.4860 O   0  0  0  0  0  0  0  0  0  0  0  0
   -0.1760    5.7900   -8.3200 C   0  0  0  0  0  0  0  0  0  0  0  0
   -2.6120    1.5400   -1.1870 O   0  0  0  0  0  0  0  0  0  0  0  0
   -0.5080    3.8330   -5.0970 C   0  0  0  0  0  0  0  0  0  0  0  0
   -2.0730    2.5900   -3.7380 C   0  0  0  0  0  0  0  0  0  0  0  0
    0.2140    2.8610   -3.0010 C   0  0  0  0  0  0  0  0  0  0  0  0
   -1.1580   -1.6260    2.2450 C   0  0  0  0  0  0  0  0  0  0  0  0
    1.2100   -2.0170    2.5250 C   0  0  0  0  0  0  0  0  0  0  0  0
   -0.3750   -3.0040    4.0670 C   0  0  0  0  0  0  0  0  0  0  0  0
    0.4920    3.6020   -4.1540 C   0  0  0  0  0  0  0  0  0  0  0  0
   -1.7900    3.3290   -4.8880 C   0  0  0  0  0  0  0  0  0  0  0  0
    0.9400   -2.8060    3.6490 C   0  0  0  0  0  0  0  0  0  0  0  0
   -1.4250   -2.4140    3.3670 C   0  0  0  0  0  0  0  0  0  0  0  0
   -0.7460   -4.0490    5.5490 Br  0  0  0  0  0  0  0  0  0  0  0  0
    1.8060   -0.6030    0.0040 C   0  0  0  0  0  0  0  0  0  0  0  0
   -0.6880    5.7760   -9.6530 C   0  0  0  0  0  0  0  0  0  0  0  0
    0.9150    6.5730   -8.0270 C   0  0  0  0  0  0  0  0  0  0  0  0
   -0.0500    6.5210  -10.6470 C   0  0  0  0  0  0  0  0  0  0  0  0
    1.5490    7.3180   -9.0250 C   0  0  0  0  0  0  0  0  0  0  0  0
    1.0690    7.2900  -10.3330 C   0  0  0  0  0  0  0  0  0  0  0  0
    0.6020    0.9580   -1.3670 H   0  0  0  0  0  0  0  0  0  0  0  0
    0.8180    4.9230   -6.2770 H   0  0  0  0  0  0  0  0  0  0  0  0
   -3.0680    2.2080   -3.5640 H   0  0  0  0  0  0  0  0  0  0  0  0
    0.9880    2.6940   -2.2660 H   0  0  0  0  0  0  0  0  0  0  0  0
   -1.9750   -1.1660    1.7080 H   0  0  0  0  0  0  0  0  0  0  0  0
    2.2310   -1.8630    2.2080 H   0  0  0  0  0  0  0  0  0  0  0  0
    1.4850    3.9960   -4.3140 H   0  0  0  0  0  0  0  0  0  0  0  0
   -2.5660    3.5100   -5.6170 H   0  0  0  0  0  0  0  0  0  0  0  0
    1.7530   -3.2630    4.1940 H   0  0  0  0  0  0  0  0  0  0  0  0
   -2.4440   -2.5660    3.6910 H   0  0  0  0  0  0  0  0  0  0  0  0
    2.4320   -1.2740    0.5920 H   0  0  0  0  0  0  0  0  0  0  0  0
    2.2360    0.3980    0.0160 H   0  0  0  0  0  0  0  0  0  0  0  0
    1.7520   -0.9630   -1.0230 H   0  0  0  0  0  0  0  0  0  0  0  0
   -1.5650    5.1920   -9.8910 H   0  0  0  0  0  0  0  0  0  0  0  0
    1.2870    6.6130   -7.0140 H   0  0  0  0  0  0  0  0  0  0  0  0
   -0.4240    6.5010  -11.6600 H   0  0  0  0  0  0  0  0  0  0  0  0
    2.4140    7.9170   -8.7820 H   0  0  0  0  0  0  0  0  0  0  0  0
    1.5640    7.8640  -11.1030 H   0  0  0  0  0  0  0  0  0  0  0  0
  1  5  1  0  0  0  0
  1  9  2  0  0  0  0
  1 10  1  0  0  0  0
  2  4  1  0  0  0  0
  2  6  2  0  0  0  0
  3  4  1  0  0  0  0
  3  7  1  0  0  0  0
  3 11  2  0  0  0  0
  4 29  1  0  0  0  0
  5 12  1  0  0  0  0
  5 30  1  0  0  0  0
  6  8  1  0  0  0  0
  6 23  1  0  0  0  0
  7 13  1  0  0  0  0
  7 14  2  0  0  0  0
  8 15  1  0  0  0  0
  8 16  2  0  0  0  0
 10 24  2  0  0  0  0
 10 25  1  0  0  0  0
 12 18  2  0  0  0  0
 12 19  1  0  0  0  0
 13 19  2  0  0  0  0
 13 31  1  0  0  0  0
 14 18  1  0  0  0  0
 14 32  1  0  0  0  0
 15 21  2  0  0  0  0
 15 33  1  0  0  0  0
 16 20  1  0  0  0  0
 16 34  1  0  0  0  0
 17 20  2  0  0  0  0
 17 21  1  0  0  0  0
 17 22  1  0  0  0  0
 18 35  1  0  0  0  0
 19 36  1  0  0  0  0
 20 37  1  0  0  0  0
 21 38  1  0  0  0  0
 23 39  1  0  0  0  0
 23 40  1  0  0  0  0
 23 41  1  0  0  0  0
 24 26  1  0  0  0  0
 24 42  1  0  0  0  0
 25 27  2  0  0  0  0
 25 43  1  0  0  0  0
 26 28  2  0  0  0  0
 26 44  1  0  0  0  0
 27 28  1  0  0  0  0
 27 45  1  0  0  0  0
 28 46  1  0  0  0  0
M  END
>  <$CLUSTER>
829

>  <INDEX>
104583

$$$$
Chemical Block A3614/0153203
  MOE2020           3D

 34 36  0  0  0  0  0  0  0  0999 V2000
    0.4580    0.1480    0.6140 C   0  0  0  0  0  0  0  0  0  0  0  0
    0.0520   -0.2920   -0.7150 C   0  0  0  0  0  0  0  0  0  0  0  0
    2.1750   -0.6680   -0.4410 O   0  0  0  0  0  0  0  0  0  0  0  0
    1.7670   -0.0960    0.7530 N   0  0  0  0  0  0  0  0  0  0  0  0
    1.1280   -0.7880   -1.3380 N   0  0  0  0  0  0  0  0  0  0  0  0
   -0.4470    0.7200    1.5270 C   0  0  0  0  0  0  0  0  0  0  0  0
   -1.2730   -0.1740   -1.1750 C   0  0  0  0  0  0  0  0  0  0  0  0
   -3.3000    3.0490    5.0360 C   0  0  0  0  0  0  0  0  0  0  0  0
   -1.7650    0.8290    1.0480 C   0  0  0  0  0  0  0  0  0  0  0  0
   -2.1610    0.4010   -0.2470 C   0  0  0  0  0  0  0  0  0  0  0  0
   -2.5270    1.8360    3.1280 N   0  0  0  0  0  0  0  0  0  0  0  0
   -4.5920    3.5660    5.6650 C   0  0  0  0  0  0  0  0  0  0  0  0
   -3.5910    2.3480    3.7900 N   0  0  0  0  0  0  0  0  0  0  0  0
   -2.2230    3.2220    5.5390 O   0  0  0  0  0  0  0  0  0  0  0  0
   -2.7980    1.4180    1.9290 C   0  0  0  0  0  0  0  0  0  0  0  0
   -4.5200    3.7700    7.0640 C   0  0  0  0  0  0  0  0  0  0  0  0
   -5.7230    3.8910    4.9690 C   0  0  0  0  0  0  0  0  0  0  0  0
   -6.7960    4.5840    7.0250 C   0  0  0  0  0  0  0  0  0  0  0  0
   -5.6370    4.2730    7.7330 C   0  0  0  0  0  0  0  0  0  0  0  0
   -6.8380    4.3950    5.6440 C   0  0  0  0  0  0  0  0  0  0  0  0
   -7.8230    5.0820    7.7990 O   0  0  0  0  0  0  0  0  0  0  0  0
   -9.0310    5.4200    7.1280 C   0  0  0  0  0  0  0  0  0  0  0  0
   -0.1540    1.0480    2.5130 H   0  0  0  0  0  0  0  0  0  0  0  0
   -1.5820   -0.4980   -2.1580 H   0  0  0  0  0  0  0  0  0  0  0  0
   -3.1950    0.5230   -0.5340 H   0  0  0  0  0  0  0  0  0  0  0  0
   -4.5340    2.2500    3.4410 H   0  0  0  0  0  0  0  0  0  0  0  0
   -3.8100    1.5030    1.5630 H   0  0  0  0  0  0  0  0  0  0  0  0
   -3.6140    3.5400    7.6060 H   0  0  0  0  0  0  0  0  0  0  0  0
   -5.7550    3.7580    3.8980 H   0  0  0  0  0  0  0  0  0  0  0  0
   -5.6030    4.4220    8.8020 H   0  0  0  0  0  0  0  0  0  0  0  0
   -7.7350    4.6390    5.0940 H   0  0  0  0  0  0  0  0  0  0  0  0
   -9.7540    5.7980    7.8500 H   0  0  0  0  0  0  0  0  0  0  0  0
   -9.4350    4.5340    6.6390 H   0  0  0  0  0  0  0  0  0  0  0  0
   -8.8290    6.1870    6.3800 H   0  0  0  0  0  0  0  0  0  0  0  0
  1  2  1  0  0  0  0
  1  4  2  0  0  0  0
  1  6  1  0  0  0  0
  2  5  2  0  0  0  0
  2  7  1  0  0  0  0
  3  4  1  0  0  0  0
  3  5  1  0  0  0  0
  6  9  2  0  0  0  0
  6 23  1  0  0  0  0
  7 10  2  0  0  0  0
  7 24  1  0  0  0  0
  8 12  1  0  0  0  0
  8 13  1  0  0  0  0
  8 14  2  0  0  0  0
  9 10  1  0  0  0  0
  9 15  1  0  0  0  0
 10 25  1  0  0  0  0
 11 13  1  0  0  0  0
 11 15  2  0  0  0  0
 12 16  2  0  0  0  0
 12 17  1  0  0  0  0
 13 26  1  0  0  0  0
 15 27  1  0  0  0  0
 16 19  1  0  0  0  0
 16 28  1  0  0  0  0
 17 20  2  0  0  0  0
 17 29  1  0  0  0  0
 18 19  2  0  0  0  0
 18 20  1  0  0  0  0
 18 21  1  0  0  0  0
 19 30  1  0  0  0  0
 20 31  1  0  0  0  0
 21 22  1  0  0  0  0
 22 32  1  0  0  0  0
 22 33  1  0  0  0  0
 22 34  1  0  0  0  0
M  END
>  <$CLUSTER>
830

>  <INDEX>
117178

$$$$
Chem T&I ARAK0113609
  MOE2020           3D

 36 37  0  0  0  0  0  0  0  0999 V2000
   -0.7780   -0.1430   -2.2720 C   0  0  0  0  0  0  0  0  0  0  0  0
    0.1090    0.2820   -0.0900 N   0  0  0  0  0  0  0  0  0  0  0  0
   -0.7480   -0.4540   -0.8460 N   0  0  0  0  0  0  0  0  0  0  0  0
   -0.1320    0.6890   -2.8490 O   0  0  0  0  0  0  0  0  0  0  0  0
    1.1640    0.4980    2.0920 C   0  0  0  0  0  0  0  0  0  0  0  0
    0.2540   -0.1830    1.1150 C   0  0  0  0  0  0  0  0  0  0  0  0
    1.3040   -0.0260    3.3950 C   0  0  0  0  0  0  0  0  0  0  0  0
   -1.7820   -1.0450   -2.9850 C   0  0  0  0  0  0  0  0  0  0  0  0
   -1.7990   -0.7440   -4.3540 O   0  0  0  0  0  0  0  0  0  0  0  0
   -2.6400   -1.4530   -5.1590 C   0  0  0  0  0  0  0  0  0  0  0  0
    0.5780   -1.2570    3.8730 C   0  0  0  0  0  0  0  0  0  0  0  0
    1.8550    1.6360    1.7000 C   0  0  0  0  0  0  0  0  0  0  0  0
    2.1670    0.6400    4.2820 C   0  0  0  0  0  0  0  0  0  0  0  0
   -2.6110   -1.1040   -6.5140 C   0  0  0  0  0  0  0  0  0  0  0  0
   -3.5020   -2.4690   -4.7340 C   0  0  0  0  0  0  0  0  0  0  0  0
    2.8610    1.7840    3.8860 C   0  0  0  0  0  0  0  0  0  0  0  0
    2.7070    2.2820    2.5960 C   0  0  0  0  0  0  0  0  0  0  0  0
   -3.4290   -1.7610   -7.4340 C   0  0  0  0  0  0  0  0  0  0  0  0
   -4.3200   -3.1260   -5.6580 C   0  0  0  0  0  0  0  0  0  0  0  0
   -4.2850   -2.7730   -7.0050 C   0  0  0  0  0  0  0  0  0  0  0  0
   -1.3310   -1.1750   -0.4440 H   0  0  0  0  0  0  0  0  0  0  0  0
   -0.2860   -1.0690    1.4150 H   0  0  0  0  0  0  0  0  0  0  0  0
   -2.7750   -0.8830   -2.5660 H   0  0  0  0  0  0  0  0  0  0  0  0
   -1.4950   -2.0870   -2.8470 H   0  0  0  0  0  0  0  0  0  0  0  0
   -0.0450   -1.6470    3.0680 H   0  0  0  0  0  0  0  0  0  0  0  0
   -0.0500   -1.0000    4.7260 H   0  0  0  0  0  0  0  0  0  0  0  0
    1.3030   -2.0140    4.1710 H   0  0  0  0  0  0  0  0  0  0  0  0
    1.7330    2.0220    0.6990 H   0  0  0  0  0  0  0  0  0  0  0  0
    2.2950    0.2610    5.2850 H   0  0  0  0  0  0  0  0  0  0  0  0
   -1.9500   -0.3190   -6.8510 H   0  0  0  0  0  0  0  0  0  0  0  0
   -3.5360   -2.7460   -3.6910 H   0  0  0  0  0  0  0  0  0  0  0  0
    3.5190    2.2840    4.5820 H   0  0  0  0  0  0  0  0  0  0  0  0
    3.2460    3.1660    2.2890 H   0  0  0  0  0  0  0  0  0  0  0  0
   -3.3990   -1.4850   -8.4780 H   0  0  0  0  0  0  0  0  0  0  0  0
   -4.9830   -3.9110   -5.3260 H   0  0  0  0  0  0  0  0  0  0  0  0
   -4.9200   -3.2820   -7.7150 H   0  0  0  0  0  0  0  0  0  0  0  0
  1  3  1  0  0  0  0
  1  4  2  0  0  0  0
  1  8  1  0  0  0  0
  2  3  1  0  0  0  0
  2  6  2  0  0  0  0
  3 21  1  0  0  0  0
  5  6  1  0  0  0  0
  5  7  2  0  0  0  0
  5 12  1  0  0  0  0
  6 22  1  0  0  0  0
  7 11  1  0  0  0  0
  7 13  1  0  0  0  0
  8  9  1  0  0  0  0
  8 23  1  0  0  0  0
  8 24  1  0  0  0  0
  9 10  1  0  0  0  0
 10 14  2  0  0  0  0
 10 15  1  0  0  0  0
 11 25  1  0  0  0  0
 11 26  1  0  0  0  0
 11 27  1  0  0  0  0
 12 17  2  0  0  0  0
 12 28  1  0  0  0  0
 13 16  2  0  0  0  0
 13 29  1  0  0  0  0
 14 18  1  0  0  0  0
 14 30  1  0  0  0  0
 15 19  2  0  0  0  0
 15 31  1  0  0  0  0
 16 17  1  0  0  0  0
 16 32  1  0  0  0  0
 17 33  1  0  0  0  0
 18 20  2  0  0  0  0
 18 34  1  0  0  0  0
 19 20  1  0  0  0  0
 19 35  1  0  0  0  0
 20 36  1  0  0  0  0
M  END
>  <$CLUSTER>
831

>  <INDEX>
535609

$$$$
Chem T&I ARAK0119664
  MOE2020           3D

 48 49  0  0  0  0  0  0  0  0999 V2000
   -0.5790    0.1450    0.1350 N   0  0  0  0  0  0  0  0  0  0  0  0
   -2.7930    4.5110   -5.2970 N   0  0  0  0  0  0  0  0  0  0  0  0
   -2.8320    5.3370   -6.4420 C   0  0  0  0  0  0  0  0  0  0  0  0
   -1.7440    3.8490   -4.6890 C   0  0  0  0  0  0  0  0  0  0  0  0
   -0.3260    0.8830   -0.9750 N   0  0  0  0  0  0  0  0  0  0  0  0
   -1.4740    1.5620   -1.5690 C   0  0  0  0  0  0  0  0  0  0  0  0
   -4.0590    5.9060   -6.8630 C   0  0  0  0  0  0  0  0  0  0  0  0
    0.4150   -0.5610    0.5970 C   0  0  0  0  0  0  0  0  0  0  0  0
    0.1590   -1.4260    1.8090 C   0  0  0  0  0  0  0  0  0  0  0  0
   -4.0860    6.7260   -8.0040 C   0  0  0  0  0  0  0  0  0  0  0  0
   -0.5910    3.8900   -5.1000 O   0  0  0  0  0  0  0  0  0  0  0  0
   -2.6120    1.5400   -1.1870 O   0  0  0  0  0  0  0  0  0  0  0  0
   -1.6730    5.6120   -7.1810 C   0  0  0  0  0  0  0  0  0  0  0  0
   -1.1580   -1.6260    2.2450 C   0  0  0  0  0  0  0  0  0  0  0  0
    1.2100   -2.0170    2.5250 C   0  0  0  0  0  0  0  0  0  0  0  0
   -2.1860    3.0700   -3.4620 C   0  0  0  0  0  0  0  0  0  0  0  0
   -1.0380    2.3480   -2.8040 C   0  0  0  0  0  0  0  0  0  0  0  0
   -2.9240    6.9870   -8.7250 C   0  0  0  0  0  0  0  0  0  0  0  0
   -0.3750   -3.0040    4.0670 C   0  0  0  0  0  0  0  0  0  0  0  0
   -1.7200    6.4300   -8.3130 C   0  0  0  0  0  0  0  0  0  0  0  0
    0.9400   -2.8060    3.6490 C   0  0  0  0  0  0  0  0  0  0  0  0
   -1.4250   -2.4140    3.3670 C   0  0  0  0  0  0  0  0  0  0  0  0
   -0.6820   -3.9710    5.4350 Cl  0  0  0  0  0  0  0  0  0  0  0  0
   -5.3510    5.6640   -6.1280 C   0  0  0  0  0  0  0  0  0  0  0  0
    1.8060   -0.6030    0.0040 C   0  0  0  0  0  0  0  0  0  0  0  0
   -2.9760    7.8610   -9.9340 C   0  0  0  0  0  0  0  0  0  0  0  0
   -3.6870    4.3820   -4.8440 H   0  0  0  0  0  0  0  0  0  0  0  0
    0.6020    0.9580   -1.3670 H   0  0  0  0  0  0  0  0  0  0  0  0
   -5.0210    7.1600   -8.3260 H   0  0  0  0  0  0  0  0  0  0  0  0
   -0.7300    5.1860   -6.8710 H   0  0  0  0  0  0  0  0  0  0  0  0
   -1.9750   -1.1660    1.7080 H   0  0  0  0  0  0  0  0  0  0  0  0
    2.2310   -1.8630    2.2080 H   0  0  0  0  0  0  0  0  0  0  0  0
   -2.9360    2.3380   -3.7620 H   0  0  0  0  0  0  0  0  0  0  0  0
   -2.6230    3.7640   -2.7440 H   0  0  0  0  0  0  0  0  0  0  0  0
   -0.6020    1.6550   -3.5240 H   0  0  0  0  0  0  0  0  0  0  0  0
   -0.2890    3.0810   -2.5060 H   0  0  0  0  0  0  0  0  0  0  0  0
   -0.8160    6.6300   -8.8700 H   0  0  0  0  0  0  0  0  0  0  0  0
    1.7530   -3.2630    4.1940 H   0  0  0  0  0  0  0  0  0  0  0  0
   -2.4440   -2.5660    3.6910 H   0  0  0  0  0  0  0  0  0  0  0  0
   -5.1660    5.0140   -5.2730 H   0  0  0  0  0  0  0  0  0  0  0  0
   -6.0670    5.1880   -6.7980 H   0  0  0  0  0  0  0  0  0  0  0  0
   -5.7550    6.6150   -5.7810 H   0  0  0  0  0  0  0  0  0  0  0  0
    2.4320   -1.2740    0.5920 H   0  0  0  0  0  0  0  0  0  0  0  0
    2.2360    0.3980    0.0160 H   0  0  0  0  0  0  0  0  0  0  0  0
    1.7520   -0.9630   -1.0230 H   0  0  0  0  0  0  0  0  0  0  0  0
   -4.0000    8.1990  -10.0940 H   0  0  0  0  0  0  0  0  0  0  0  0
   -2.6390    7.2980  -10.8040 H   0  0  0  0  0  0  0  0  0  0  0  0
   -2.3270    8.7240   -9.7860 H   0  0  0  0  0  0  0  0  0  0  0  0
  1  5  1  0  0  0  0
  1  8  2  0  0  0  0
  2  3  1  0  0  0  0
  2  4  1  0  0  0  0
  2 27  1  0  0  0  0
  3  7  2  0  0  0  0
  3 13  1  0  0  0  0
  4 11  2  0  0  0  0
  4 16  1  0  0  0  0
  5  6  1  0  0  0  0
  5 28  1  0  0  0  0
  6 12  2  0  0  0  0
  6 17  1  0  0  0  0
  7 10  1  0  0  0  0
  7 24  1  0  0  0  0
  8  9  1  0  0  0  0
  8 25  1  0  0  0  0
  9 14  1  0  0  0  0
  9 15  2  0  0  0  0
 10 18  2  0  0  0  0
 10 29  1  0  0  0  0
 13 20  2  0  0  0  0
 13 30  1  0  0  0  0
 14 22  2  0  0  0  0
 14 31  1  0  0  0  0
 15 21  1  0  0  0  0
 15 32  1  0  0  0  0
 16 17  1  0  0  0  0
 16 33  1  0  0  0  0
 16 34  1  0  0  0  0
 17 35  1  0  0  0  0
 17 36  1  0  0  0  0
 18 20  1  0  0  0  0
 18 26  1  0  0  0  0
 19 21  2  0  0  0  0
 19 22  1  0  0  0  0
 19 23  1  0  0  0  0
 20 37  1  0  0  0  0
 21 38  1  0  0  0  0
 22 39  1  0  0  0  0
 24 40  1  0  0  0  0
 24 41  1  0  0  0  0
 24 42  1  0  0  0  0
 25 43  1  0  0  0  0
 25 44  1  0  0  0  0
 25 45  1  0  0  0  0
 26 46  1  0  0  0  0
 26 47  1  0  0  0  0
 26 48  1  0  0  0  0
M  END
>  <$CLUSTER>
832

>  <INDEX>
537006

$$$$
Chemdiv 2254-0140
  MOE2020           3D

 36 37  0  0  0  0  0  0  0  0999 V2000
   -0.7780   -0.1430   -2.2720 C   0  0  0  0  0  0  0  0  0  0  0  0
    0.1090    0.2820   -0.0900 N   0  0  0  0  0  0  0  0  0  0  0  0
   -2.7530   -1.2480   -6.4740 C   0  0  0  0  0  0  0  0  0  0  0  0
   -2.7180   -1.5470   -5.0740 C   0  0  0  0  0  0  0  0  0  0  0  0
   -0.7480   -0.4540   -0.8460 N   0  0  0  0  0  0  0  0  0  0  0  0
   -1.8020   -0.7390   -4.3540 O   0  0  0  0  0  0  0  0  0  0  0  0
   -3.6210   -1.9790   -7.2990 C   0  0  0  0  0  0  0  0  0  0  0  0
   -0.1320    0.6890   -2.8490 O   0  0  0  0  0  0  0  0  0  0  0  0
   -1.7820   -1.0450   -2.9850 C   0  0  0  0  0  0  0  0  0  0  0  0
   -3.5290   -2.5350   -4.5680 C   0  0  0  0  0  0  0  0  0  0  0  0
    0.2540   -0.1830    1.1150 C   0  0  0  0  0  0  0  0  0  0  0  0
   -4.4350   -2.9760   -6.7650 C   0  0  0  0  0  0  0  0  0  0  0  0
    1.1640    0.4980    2.0920 C   0  0  0  0  0  0  0  0  0  0  0  0
    2.8230    1.6840    3.9740 C   0  0  0  0  0  0  0  0  0  0  0  0
   -4.3880   -3.2530   -5.4030 C   0  0  0  0  0  0  0  0  0  0  0  0
   -5.4780   -3.8470   -7.7910 Cl  0  0  0  0  0  0  0  0  0  0  0  0
    3.9360    2.4930    5.2100 Br  0  0  0  0  0  0  0  0  0  0  0  0
    2.7090    2.2320    2.6950 C   0  0  0  0  0  0  0  0  0  0  0  0
    2.1010    0.5380    4.3100 C   0  0  0  0  0  0  0  0  0  0  0  0
    1.2640   -0.0640    3.3680 C   0  0  0  0  0  0  0  0  0  0  0  0
    1.8730    1.6330    1.7490 C   0  0  0  0  0  0  0  0  0  0  0  0
   -1.8860   -0.1770   -7.0750 C   0  0  0  0  0  0  0  0  0  0  0  0
   -1.3310   -1.1750   -0.4440 H   0  0  0  0  0  0  0  0  0  0  0  0
   -3.6590   -1.7670   -8.3570 H   0  0  0  0  0  0  0  0  0  0  0  0
   -2.7750   -0.8870   -2.5640 H   0  0  0  0  0  0  0  0  0  0  0  0
   -1.4920   -2.0870   -2.8510 H   0  0  0  0  0  0  0  0  0  0  0  0
   -3.5020   -2.7590   -3.5120 H   0  0  0  0  0  0  0  0  0  0  0  0
   -0.2860   -1.0690    1.4150 H   0  0  0  0  0  0  0  0  0  0  0  0
   -5.0180   -4.0260   -4.9890 H   0  0  0  0  0  0  0  0  0  0  0  0
    3.2670    3.1200    2.4370 H   0  0  0  0  0  0  0  0  0  0  0  0
    2.1900    0.1160    5.3000 H   0  0  0  0  0  0  0  0  0  0  0  0
    0.7020   -0.9510    3.6220 H   0  0  0  0  0  0  0  0  0  0  0  0
    1.7820    2.0540    0.7580 H   0  0  0  0  0  0  0  0  0  0  0  0
   -1.2820    0.2820   -6.2930 H   0  0  0  0  0  0  0  0  0  0  0  0
   -2.5150    0.5810   -7.5400 H   0  0  0  0  0  0  0  0  0  0  0  0
   -1.2320   -0.6180   -7.8270 H   0  0  0  0  0  0  0  0  0  0  0  0
  1  5  1  0  0  0  0
  1  8  2  0  0  0  0
  1  9  1  0  0  0  0
  2  5  1  0  0  0  0
  2 11  2  0  0  0  0
  3  4  2  0  0  0  0
  3  7  1  0  0  0  0
  3 22  1  0  0  0  0
  4  6  1  0  0  0  0
  4 10  1  0  0  0  0
  5 23  1  0  0  0  0
  6  9  1  0  0  0  0
  7 12  2  0  0  0  0
  7 24  1  0  0  0  0
  9 25  1  0  0  0  0
  9 26  1  0  0  0  0
 10 15  2  0  0  0  0
 10 27  1  0  0  0  0
 11 13  1  0  0  0  0
 11 28  1  0  0  0  0
 12 15  1  0  0  0  0
 12 16  1  0  0  0  0
 13 20  2  0  0  0  0
 13 21  1  0  0  0  0
 14 17  1  0  0  0  0
 14 18  1  0  0  0  0
 14 19  2  0  0  0  0
 15 29  1  0  0  0  0
 18 21  2  0  0  0  0
 18 30  1  0  0  0  0
 19 20  1  0  0  0  0
 19 31  1  0  0  0  0
 20 32  1  0  0  0  0
 21 33  1  0  0  0  0
 22 34  1  0  0  0  0
 22 35  1  0  0  0  0
 22 36  1  0  0  0  0
M  END
>  <$CLUSTER>
833

>  <INDEX>
21413

$$$$
Chem T&I ARAK0131652
  MOE2020           3D

 37 38  0  0  0  0  0  0  0  0999 V2000
    1.7470    0.6270   -0.3370 S   0  0  0  0  0  0  0  0  0  0  0  0
    0.3540    0.0430    0.5560 C   0  0  0  0  0  0  0  0  0  0  0  0
   -0.8660   -0.2300   -0.0540 C   0  0  0  0  0  0  0  0  0  0  0  0
   -1.1000    0.0230   -1.4570 N   0  3  0  0  0  0  0  0  0  0  0  0
    1.7350   -0.3140   -1.7040 N   0  0  0  0  0  0  0  0  0  0  0  0
    2.6960    0.1020   -2.6940 N   0  0  0  0  0  0  0  0  0  0  0  0
    2.3360    0.3930   -3.9360 C   0  0  0  0  0  0  0  0  0  0  0  0
    2.9460    0.2670    0.3980 O   0  0  0  0  0  0  0  0  0  0  0  0
    1.4940    2.0030   -0.7120 O   0  0  0  0  0  0  0  0  0  0  0  0
   -1.3520   -0.9570   -2.1770 O   0  5  0  0  0  0  0  0  0  0  0  0
   -1.1400    1.2070   -1.8250 O   0  0  0  0  0  0  0  0  0  0  0  0
    3.1060    1.2040   -6.0820 O   0  0  0  0  0  0  0  0  0  0  0  0
    1.2210    0.2380   -4.4360 O   0  0  0  0  0  0  0  0  0  0  0  0
    4.1620    1.6820   -6.8700 C   0  0  0  0  0  0  0  0  0  0  0  0
    3.8110    1.9990   -8.2210 C   0  0  0  0  0  0  0  0  0  0  0  0
    3.5030    0.9020   -4.7430 C   0  0  0  0  0  0  0  0  0  0  0  0
    0.4960   -0.2120    1.9280 C   0  0  0  0  0  0  0  0  0  0  0  0
   -1.9460   -0.7460    0.6780 C   0  0  0  0  0  0  0  0  0  0  0  0
    2.1940    1.7950   -8.8020 Cl  0  0  0  0  0  0  0  0  0  0  0  0
    5.4830    1.8740   -6.4810 C   0  0  0  0  0  0  0  0  0  0  0  0
    4.7700    2.4850   -9.1130 C   0  0  0  0  0  0  0  0  0  0  0  0
   -0.5750   -0.7220    2.6650 C   0  0  0  0  0  0  0  0  0  0  0  0
   -1.7930   -0.9900    2.0420 C   0  0  0  0  0  0  0  0  0  0  0  0
    6.0850    2.6650   -8.6880 C   0  0  0  0  0  0  0  0  0  0  0  0
    6.4400    2.3590   -7.3750 C   0  0  0  0  0  0  0  0  0  0  0  0
    0.8130   -0.2700   -2.1150 H   0  0  0  0  0  0  0  0  0  0  0  0
    3.6690    0.1740   -2.4350 H   0  0  0  0  0  0  0  0  0  0  0  0
    4.2810    0.1390   -4.7650 H   0  0  0  0  0  0  0  0  0  0  0  0
    3.8940    1.8050   -4.2750 H   0  0  0  0  0  0  0  0  0  0  0  0
    1.4380   -0.0130    2.4170 H   0  0  0  0  0  0  0  0  0  0  0  0
   -2.8870   -0.9520    0.1890 H   0  0  0  0  0  0  0  0  0  0  0  0
    5.7750    1.6430   -5.4670 H   0  0  0  0  0  0  0  0  0  0  0  0
    4.4930    2.7210  -10.1300 H   0  0  0  0  0  0  0  0  0  0  0  0
   -0.4590   -0.9100    3.7220 H   0  0  0  0  0  0  0  0  0  0  0  0
   -2.6180   -1.3860    2.6160 H   0  0  0  0  0  0  0  0  0  0  0  0
    6.8280    3.0410   -9.3750 H   0  0  0  0  0  0  0  0  0  0  0  0
    7.4600    2.4980   -7.0480 H   0  0  0  0  0  0  0  0  0  0  0  0
  1  2  1  0  0  0  0
  1  5  1  0  0  0  0
  1  8  2  0  0  0  0
  1  9  2  0  0  0  0
  2  3  2  0  0  0  0
  2 17  1  0  0  0  0
  3  4  1  0  0  0  0
  3 18  1  0  0  0  0
  4 10  1  0  0  0  0
  4 11  2  0  0  0  0
  5  6  1  0  0  0  0
  5 26  1  0  0  0  0
  6  7  1  0  0  0  0
  6 27  1  0  0  0  0
  7 13  2  0  0  0  0
  7 16  1  0  0  0  0
 12 14  1  0  0  0  0
 12 16  1  0  0  0  0
 14 15  2  0  0  0  0
 14 20  1  0  0  0  0
 15 19  1  0  0  0  0
 15 21  1  0  0  0  0
 16 28  1  0  0  0  0
 16 29  1  0  0  0  0
 17 22  2  0  0  0  0
 17 30  1  0  0  0  0
 18 23  2  0  0  0  0
 18 31  1  0  0  0  0
 20 25  2  0  0  0  0
 20 32  1  0  0  0  0
 21 24  2  0  0  0  0
 21 33  1  0  0  0  0
 22 23  1  0  0  0  0
 22 34  1  0  0  0  0
 23 35  1  0  0  0  0
 24 25  1  0  0  0  0
 24 36  1  0  0  0  0
 25 37  1  0  0  0  0
M  CHG  1   4   1
M  CHG  1  10  -1
M  END
>  <$CLUSTER>
834

>  <INDEX>
540555

$$$$
Chem T&I ARAK0132847
  MOE2020           3D

 38 39  0  0  0  0  0  0  0  0999 V2000
    1.7300    0.0840    0.0250 N   0  3  0  0  0  0  0  0  0  0  0  0
    0.2970    0.2240    0.0080 C   0  0  0  0  0  0  0  0  0  0  0  0
   -0.2330    1.5190    0.0310 C   0  0  0  0  0  0  0  0  0  0  0  0
   -2.2480    3.0190    0.0350 C   0  0  0  0  0  0  0  0  0  0  0  0
   -1.6180    1.6790    0.0090 C   0  0  0  0  0  0  0  0  0  0  0  0
   -0.5170   -0.9040   -0.0270 C   0  0  0  0  0  0  0  0  0  0  0  0
   -1.9500    5.3850   -0.5110 N   0  0  0  0  0  0  0  0  0  0  0  0
    2.2870   -0.2310   -1.0390 O   0  5  0  0  0  0  0  0  0  0  0  0
    2.3110    0.3140    1.0980 O   0  0  0  0  0  0  0  0  0  0  0  0
   -1.7110    7.6250   -1.2980 C   0  0  0  0  0  0  0  0  0  0  0  0
   -1.5030    4.0660   -0.4620 N   0  0  0  0  0  0  0  0  0  0  0  0
   -3.3870    3.1570    0.4740 O   0  0  0  0  0  0  0  0  0  0  0  0
   -2.4500    0.5590   -0.0320 C   0  0  0  0  0  0  0  0  0  0  0  0
   -0.9320    8.5300   -2.0650 C   0  0  0  0  0  0  0  0  0  0  0  0
   -1.2750    6.1960   -1.1820 C   0  0  0  0  0  0  0  0  0  0  0  0
   -1.9040   -0.7280   -0.0490 C   0  0  0  0  0  0  0  0  0  0  0  0
    0.0960   -2.5160   -0.0240 Cl  0  0  0  0  0  0  0  0  0  0  0  0
    0.2140    8.0310   -2.6760 O   0  0  0  0  0  0  0  0  0  0  0  0
   -2.8650    8.0570   -0.6640 C   0  0  0  0  0  0  0  0  0  0  0  0
   -1.3580    9.8670   -2.1620 C   0  0  0  0  0  0  0  0  0  0  0  0
    0.9950    8.9530   -3.4480 C   0  0  0  0  0  0  0  0  0  0  0  0
    2.1790    8.2880   -4.0360 C   0  0  0  0  0  0  0  0  0  0  0  0
   -3.2760    9.3850   -0.7680 C   0  0  0  0  0  0  0  0  0  0  0  0
   -2.5230   10.2870   -1.5160 C   0  0  0  0  0  0  0  0  0  0  0  0
    0.4190    2.3790    0.0650 H   0  0  0  0  0  0  0  0  0  0  0  0
   -0.5770    3.8650   -0.8120 H   0  0  0  0  0  0  0  0  0  0  0  0
   -3.5220    0.6870   -0.0510 H   0  0  0  0  0  0  0  0  0  0  0  0
   -0.3750    5.8660   -1.6790 H   0  0  0  0  0  0  0  0  0  0  0  0
   -2.5550   -1.5890   -0.0790 H   0  0  0  0  0  0  0  0  0  0  0  0
   -3.4510    7.3590   -0.0840 H   0  0  0  0  0  0  0  0  0  0  0  0
   -0.7810   10.5730   -2.7400 H   0  0  0  0  0  0  0  0  0  0  0  0
    1.3280    9.7660   -2.8020 H   0  0  0  0  0  0  0  0  0  0  0  0
    0.3780    9.3560   -4.2510 H   0  0  0  0  0  0  0  0  0  0  0  0
    2.8010    7.8820   -3.2380 H   0  0  0  0  0  0  0  0  0  0  0  0
    2.7540    9.0130   -4.6120 H   0  0  0  0  0  0  0  0  0  0  0  0
    1.8540    7.4790   -4.6910 H   0  0  0  0  0  0  0  0  0  0  0  0
   -4.1760    9.7140   -0.2700 H   0  0  0  0  0  0  0  0  0  0  0  0
   -2.8410   11.3160   -1.5970 H   0  0  0  0  0  0  0  0  0  0  0  0
  1  2  1  0  0  0  0
  1  8  1  0  0  0  0
  1  9  2  0  0  0  0
  2  3  2  0  0  0  0
  2  6  1  0  0  0  0
  3  5  1  0  0  0  0
  3 25  1  0  0  0  0
  4  5  1  0  0  0  0
  4 11  1  0  0  0  0
  4 12  2  0  0  0  0
  5 13  2  0  0  0  0
  6 16  2  0  0  0  0
  6 17  1  0  0  0  0
  7 11  1  0  0  0  0
  7 15  2  0  0  0  0
 10 14  2  0  0  0  0
 10 15  1  0  0  0  0
 10 19  1  0  0  0  0
 11 26  1  0  0  0  0
 13 16  1  0  0  0  0
 13 27  1  0  0  0  0
 14 18  1  0  0  0  0
 14 20  1  0  0  0  0
 15 28  1  0  0  0  0
 16 29  1  0  0  0  0
 18 21  1  0  0  0  0
 19 23  2  0  0  0  0
 19 30  1  0  0  0  0
 20 24  2  0  0  0  0
 20 31  1  0  0  0  0
 21 22  1  0  0  0  0
 21 32  1  0  0  0  0
 21 33  1  0  0  0  0
 22 34  1  0  0  0  0
 22 35  1  0  0  0  0
 22 36  1  0  0  0  0
 23 24  1  0  0  0  0
 23 37  1  0  0  0  0
 24 38  1  0  0  0  0
M  CHG  1   1   1
M  CHG  1   8  -1
M  END
>  <$CLUSTER>
835

>  <INDEX>
540969

$$$$
Chem T&I NSB-0008717
  MOE2020           3D

 33 34  0  0  0  0  0  0  0  0999 V2000
   -0.6730   -1.2210   -0.1500 C   0  0  0  0  0  0  0  0  0  0  0  0
   -0.1560    0.0110   -0.7080 C   0  0  0  0  0  0  0  0  0  0  0  0
   -1.3100   -1.9710   -1.1350 C   0  0  0  0  0  0  0  0  0  0  0  0
   -0.4310    0.1390   -2.0540 C   0  0  0  0  0  0  0  0  0  0  0  0
   -1.2890   -1.1970   -2.6630 S   0  0  0  0  0  0  0  0  0  0  0  0
   -0.5760   -1.6750    1.2410 C   0  0  0  0  0  0  0  0  0  0  0  0
    0.5960    1.0730   -0.0590 C   0  0  0  0  0  0  0  0  0  0  0  0
   -0.9260   -2.7820    1.6350 O   0  0  0  0  0  0  0  0  0  0  0  0
   -1.9130   -3.1730   -1.0100 N   0  0  0  0  0  0  0  0  0  0  0  0
   -0.0450    2.2570    0.3270 C   0  0  0  0  0  0  0  0  0  0  0  0
    1.9670    0.9130    0.1830 C   0  0  0  0  0  0  0  0  0  0  0  0
   -0.0650   -0.7480    2.0920 O   0  0  0  0  0  0  0  0  0  0  0  0
    2.0460    3.1090    1.1910 C   0  0  0  0  0  0  0  0  0  0  0  0
    0.6820    3.2720    0.9510 C   0  0  0  0  0  0  0  0  0  0  0  0
    2.6880    1.9320    0.8070 C   0  0  0  0  0  0  0  0  0  0  0  0
    2.9170    4.3580    1.9540 Cl  0  0  0  0  0  0  0  0  0  0  0  0
    0.0790   -1.0590    3.4530 C   0  0  0  0  0  0  0  0  0  0  0  0
    0.6670    0.1340    4.1780 C   0  0  0  0  0  0  0  0  0  0  0  0
    0.8540   -0.1270    5.6650 C   0  0  0  0  0  0  0  0  0  0  0  0
   -0.1360    0.9890   -2.6510 H   0  0  0  0  0  0  0  0  0  0  0  0
   -2.3460   -3.6070   -1.8130 H   0  0  0  0  0  0  0  0  0  0  0  0
   -1.9310   -3.6380   -0.1140 H   0  0  0  0  0  0  0  0  0  0  0  0
   -1.1010    2.3850    0.1420 H   0  0  0  0  0  0  0  0  0  0  0  0
    2.4650    0.0020   -0.1130 H   0  0  0  0  0  0  0  0  0  0  0  0
    0.1870    4.1850    1.2480 H   0  0  0  0  0  0  0  0  0  0  0  0
    3.7450    1.8090    0.9930 H   0  0  0  0  0  0  0  0  0  0  0  0
    0.7440   -1.9160    3.5630 H   0  0  0  0  0  0  0  0  0  0  0  0
   -0.8960   -1.2990    3.8770 H   0  0  0  0  0  0  0  0  0  0  0  0
   -0.0030    0.9850    4.0530 H   0  0  0  0  0  0  0  0  0  0  0  0
    1.6370    0.3680    3.7390 H   0  0  0  0  0  0  0  0  0  0  0  0
   -0.1100   -0.3620    6.1170 H   0  0  0  0  0  0  0  0  0  0  0  0
    1.2710    0.7610    6.1400 H   0  0  0  0  0  0  0  0  0  0  0  0
    1.5350   -0.9670    5.8040 H   0  0  0  0  0  0  0  0  0  0  0  0
  1  2  1  0  0  0  0
  1  3  2  0  0  0  0
  1  6  1  0  0  0  0
  2  4  2  0  0  0  0
  2  7  1  0  0  0  0
  3  5  1  0  0  0  0
  3  9  1  0  0  0  0
  4  5  1  0  0  0  0
  4 20  1  0  0  0  0
  6  8  2  0  0  0  0
  6 12  1  0  0  0  0
  7 10  2  0  0  0  0
  7 11  1  0  0  0  0
  9 21  1  0  0  0  0
  9 22  1  0  0  0  0
 10 14  1  0  0  0  0
 10 23  1  0  0  0  0
 11 15  2  0  0  0  0
 11 24  1  0  0  0  0
 12 17  1  0  0  0  0
 13 14  2  0  0  0  0
 13 15  1  0  0  0  0
 13 16  1  0  0  0  0
 14 25  1  0  0  0  0
 15 26  1  0  0  0  0
 17 18  1  0  0  0  0
 17 27  1  0  0  0  0
 17 28  1  0  0  0  0
 18 19  1  0  0  0  0
 18 29  1  0  0  0  0
 18 30  1  0  0  0  0
 19 31  1  0  0  0  0
 19 32  1  0  0  0  0
 19 33  1  0  0  0  0
M  END
>  <$CLUSTER>
836

>  <INDEX>
576910

$$$$
Comgenex CGX-0866757
  MOE2020           3D

 53 55  0  0  1  0  0  0  0  0999 V2000
   -0.3820    0.2880   -0.6090 C   0  0  0  0  0  0  0  0  0  0  0  0
    0.4720   -0.9130   -0.7860 C   0  0  0  0  0  0  0  0  0  0  0  0
   -0.4690    0.8380    0.6170 C   0  0  0  0  0  0  0  0  0  0  0  0
    0.1900    0.3670    1.7330 N   0  0  0  0  0  0  0  0  0  0  0  0
    1.1010   -1.3300    0.3700 N   0  0  0  0  0  0  0  0  0  0  0  0
    0.9320   -0.6750    1.5640 C   0  0  0  0  0  0  0  0  0  0  0  0
   -1.6860    2.2060   -1.6000 N   0  3  3  0  0  0  0  0  0  0  0  0
   -1.0920    0.8270   -1.8120 C   0  0  0  0  0  0  0  0  0  0  0  0
    0.5210    1.1940   -7.8420 C   0  0  0  0  0  0  0  0  0  0  0  0
   -1.3460    2.0510    0.8420 C   0  0  0  0  0  0  0  0  0  0  0  0
    0.9610    1.5080   -8.8810 C   0  0  0  0  0  0  0  0  0  0  0  0
    0.5910   -1.4710   -1.8710 O   0  0  0  0  0  0  0  0  0  0  0  0
    1.7070   -1.2570    2.7340 C   0  0  0  0  0  0  0  0  0  0  0  0
   -2.3730    2.2980   -0.2620 C   0  0  0  0  0  0  0  0  0  0  0  0
   -2.5780    2.6210   -2.7340 C   0  0  0  0  0  0  0  0  0  0  0  0
    3.1470   -0.7660    2.7180 C   0  0  0  0  0  0  0  0  0  0  0  0
   -1.7990    2.8970   -4.0090 C   0  0  3  0  0  0  0  0  0  0  0  0
    3.5050    0.4110    3.3900 C   0  0  0  0  0  0  0  0  0  0  0  0
    4.8250    0.8620    3.3730 C   0  0  0  0  0  0  0  0  0  0  0  0
   -0.6990    3.7900   -3.7100 O   0  0  0  0  0  0  0  0  0  0  0  0
   -0.0520    0.7940   -6.4940 C   0  0  0  0  0  0  0  0  0  0  0  0
   -0.6310    1.9260   -5.8840 O   0  0  0  0  0  0  0  0  0  0  0  0
    5.4550   -1.0310    2.0160 C   0  0  0  0  0  0  0  0  0  0  0  0
    4.1350   -1.4830    2.0320 C   0  0  0  0  0  0  0  0  0  0  0  0
   -1.1870    1.6310   -4.6230 C   0  0  0  0  0  0  0  0  0  0  0  0
    5.7990    0.1400    2.6870 C   0  0  0  0  0  0  0  0  0  0  0  0
    5.1960    2.1200    4.0890 C   0  0  0  0  0  0  0  0  0  0  0  0
    1.7030   -2.1400    0.3360 H   0  0  0  0  0  0  0  0  0  0  0  0
   -0.9240    2.8680   -1.5920 H   0  0  0  0  0  0  0  0  0  0  0  0
   -1.8980    0.1410   -2.0720 H   0  0  0  0  0  0  0  0  0  0  0  0
   -0.3810    0.8810   -2.6360 H   0  0  0  0  0  0  0  0  0  0  0  0
   -0.7030    2.9280    0.9130 H   0  0  0  0  0  0  0  0  0  0  0  0
   -1.8810    1.9160    1.7820 H   0  0  0  0  0  0  0  0  0  0  0  0
    1.3610    1.7940   -9.8260 H   0  0  0  0  0  0  0  0  0  0  0  0
    1.6980   -2.3450    2.6640 H   0  0  0  0  0  0  0  0  0  0  0  0
    1.2340   -0.9490    3.6660 H   0  0  0  0  0  0  0  0  0  0  0  0
   -3.1610    1.5470   -0.2030 H   0  0  0  0  0  0  0  0  0  0  0  0
   -2.8080    3.2900   -0.1420 H   0  0  0  0  0  0  0  0  0  0  0  0
   -3.1120    3.5270   -2.4470 H   0  0  0  0  0  0  0  0  0  0  0  0
   -3.2940    1.8220   -2.9270 H   0  0  0  0  0  0  0  0  0  0  0  0
   -2.5080    3.3250   -4.7180 H   0  0  0  0  0  0  0  0  0  0  0  0
    2.7530    0.9730    3.9250 H   0  0  0  0  0  0  0  0  0  0  0  0
   -0.1240    3.3430   -3.0840 H   0  0  0  0  0  0  0  0  0  0  0  0
    0.7450    0.4050   -5.8600 H   0  0  0  0  0  0  0  0  0  0  0  0
   -0.8130    0.0260   -6.6340 H   0  0  0  0  0  0  0  0  0  0  0  0
    6.2100   -1.5890    1.4830 H   0  0  0  0  0  0  0  0  0  0  0  0
    3.8730   -2.3920    1.5120 H   0  0  0  0  0  0  0  0  0  0  0  0
   -1.9630    0.8750   -4.7390 H   0  0  0  0  0  0  0  0  0  0  0  0
   -0.4060    1.2520   -3.9640 H   0  0  0  0  0  0  0  0  0  0  0  0
    6.8210    0.4880    2.6750 H   0  0  0  0  0  0  0  0  0  0  0  0
    4.3100    2.5430    4.5640 H   0  0  0  0  0  0  0  0  0  0  0  0
    5.6030    2.8370    3.3760 H   0  0  0  0  0  0  0  0  0  0  0  0
    5.9450    1.8980    4.8490 H   0  0  0  0  0  0  0  0  0  0  0  0
  1  2  1  0  0  0  0
  1  3  2  0  0  0  0
  1  8  1  0  0  0  0
  2  5  1  0  0  0  0
  2 12  2  0  0  0  0
  3  4  1  0  0  0  0
  3 10  1  0  0  0  0
  4  6  2  0  0  0  0
  5  6  1  0  0  0  0
  5 28  1  0  0  0  0
  6 13  1  0  0  0  0
  7  8  1  0  0  0  0
  7 14  1  0  0  0  0
  7 15  1  0  0  0  0
  7 29  1  0  0  0  0
  8 30  1  0  0  0  0
  8 31  1  0  0  0  0
  9 11  3  0  0  0  0
  9 21  1  0  0  0  0
 10 14  1  0  0  0  0
 10 32  1  0  0  0  0
 10 33  1  0  0  0  0
 11 34  1  0  0  0  0
 13 16  1  0  0  0  0
 13 35  1  0  0  0  0
 13 36  1  0  0  0  0
 14 37  1  0  0  0  0
 14 38  1  0  0  0  0
 15 17  1  0  0  0  0
 15 39  1  0  0  0  0
 15 40  1  0  0  0  0
 16 18  2  0  0  0  0
 16 24  1  0  0  0  0
 17 20  1  0  0  0  0
 17 25  1  0  0  0  0
 17 41  1  0  0  0  0
 18 19  1  0  0  0  0
 18 42  1  0  0  0  0
 19 26  2  0  0  0  0
 19 27  1  0  0  0  0
 20 43  1  0  0  0  0
 21 22  1  0  0  0  0
 21 44  1  0  0  0  0
 21 45  1  0  0  0  0
 22 25  1  0  0  0  0
 23 24  2  0  0  0  0
 23 26  1  0  0  0  0
 23 46  1  0  0  0  0
 24 47  1  0  0  0  0
 25 48  1  0  0  0  0
 25 49  1  0  0  0  0
 26 50  1  0  0  0  0
 27 51  1  0  0  0  0
 27 52  1  0  0  0  0
 27 53  1  0  0  0  0
M  CHG  1   7   1
M  END
>  <$CLUSTER>
837

>  <INDEX>
243637

$$$$
Life Chemicals F0412-0110
  MOE2020           3D

 56 58  0  0  0  0  0  0  0  0999 V2000
   -4.7630   -2.9440   -5.8440 S   0  0  0  0  0  0  0  0  0  0  0  0
   -2.4660    0.5200   -0.4650 N   0  0  0  0  0  0  0  0  0  0  0  0
   -3.3750    0.9130   -1.3880 C   0  0  0  0  0  0  0  0  0  0  0  0
   -1.7470   -0.7570   -0.3910 C   0  0  0  0  0  0  0  0  0  0  0  0
   -4.3290   -1.8280   -4.5480 C   0  0  0  0  0  0  0  0  0  0  0  0
   -3.3230   -3.1390   -6.6750 N   0  0  0  0  0  0  0  0  0  0  0  0
   -5.1040   -4.2270   -5.2530 O   0  0  0  0  0  0  0  0  0  0  0  0
   -5.7000   -2.2840   -6.7350 O   0  0  0  0  0  0  0  0  0  0  0  0
   -0.2500   -0.6010   -0.2390 C   0  0  0  0  0  0  0  0  0  0  0  0
   -3.6980   -0.0750   -2.4800 C   0  0  0  0  0  0  0  0  0  0  0  0
   -2.0620    1.3860    0.6490 C   0  0  0  0  0  0  0  0  0  0  0  0
   -3.9390    2.0100   -1.3820 O   0  0  0  0  0  0  0  0  0  0  0  0
    0.3080    0.5990    0.2480 C   0  0  0  0  0  0  0  0  0  0  0  0
   -3.8660   -2.3200   -3.3290 C   0  0  0  0  0  0  0  0  0  0  0  0
   -4.4840   -0.4550   -4.7310 C   0  0  0  0  0  0  0  0  0  0  0  0
   -0.5860    1.7820    0.5330 C   0  0  0  0  0  0  0  0  0  0  0  0
   -3.5510   -1.4420   -2.2900 C   0  0  0  0  0  0  0  0  0  0  0  0
   -4.1720    0.4270   -3.6940 C   0  0  0  0  0  0  0  0  0  0  0  0
   -2.8040   -1.9790   -7.4480 C   0  0  0  0  0  0  0  0  0  0  0  0
   -2.2220   -3.8780   -6.0010 C   0  0  0  0  0  0  0  0  0  0  0  0
    0.5980   -1.6850   -0.5200 C   0  0  0  0  0  0  0  0  0  0  0  0
    1.6980    0.7060    0.4110 C   0  0  0  0  0  0  0  0  0  0  0  0
   -2.1810   -4.4830   -4.7080 C   0  0  0  0  0  0  0  0  0  0  0  0
   -3.7070   -1.4860   -8.5410 C   0  0  0  0  0  0  0  0  0  0  0  0
    1.9790   -1.5720   -0.3450 C   0  0  0  0  0  0  0  0  0  0  0  0
   -3.1460   -0.3320   -9.2970 C   0  0  0  0  0  0  0  0  0  0  0  0
   -1.0250   -5.1400   -4.2350 C   0  0  0  0  0  0  0  0  0  0  0  0
    2.5280   -0.3770    0.1180 C   0  0  0  0  0  0  0  0  0  0  0  0
   -1.9440   -1.3170   -1.3050 H   0  0  0  0  0  0  0  0  0  0  0  0
   -2.1240   -1.3160    0.4660 H   0  0  0  0  0  0  0  0  0  0  0  0
   -2.2150    0.8530    1.5880 H   0  0  0  0  0  0  0  0  0  0  0  0
   -2.6740    2.2880    0.6390 H   0  0  0  0  0  0  0  0  0  0  0  0
   -3.7500   -3.3840   -3.1870 H   0  0  0  0  0  0  0  0  0  0  0  0
   -4.8450   -0.0730   -5.6740 H   0  0  0  0  0  0  0  0  0  0  0  0
   -0.2720    2.2400    1.4710 H   0  0  0  0  0  0  0  0  0  0  0  0
   -0.4800    2.5040   -0.2770 H   0  0  0  0  0  0  0  0  0  0  0  0
   -3.1950   -1.8240   -1.3450 H   0  0  0  0  0  0  0  0  0  0  0  0
   -4.2970    1.4910   -3.8300 H   0  0  0  0  0  0  0  0  0  0  0  0
   -1.8560   -2.2710   -7.9000 H   0  0  0  0  0  0  0  0  0  0  0  0
   -2.6370   -1.1570   -6.7520 H   0  0  0  0  0  0  0  0  0  0  0  0
   -1.3940   -3.1700   -5.9900 H   0  0  0  0  0  0  0  0  0  0  0  0
   -1.9920   -4.6950   -6.6850 H   0  0  0  0  0  0  0  0  0  0  0  0
    0.1780   -2.6150   -0.8750 H   0  0  0  0  0  0  0  0  0  0  0  0
    2.1280    1.6310    0.7650 H   0  0  0  0  0  0  0  0  0  0  0  0
   -2.9830   -5.2210   -4.6890 H   0  0  0  0  0  0  0  0  0  0  0  0
   -2.3990   -3.6910   -3.9910 H   0  0  0  0  0  0  0  0  0  0  0  0
   -4.6530   -1.1800   -8.0950 H   0  0  0  0  0  0  0  0  0  0  0  0
   -3.8820   -2.3040   -9.2400 H   0  0  0  0  0  0  0  0  0  0  0  0
    2.6220   -2.4110   -0.5680 H   0  0  0  0  0  0  0  0  0  0  0  0
   -2.9640    0.4970   -8.6130 H   0  0  0  0  0  0  0  0  0  0  0  0
   -3.8550   -0.0210  -10.0640 H   0  0  0  0  0  0  0  0  0  0  0  0
   -2.2080   -0.6270   -9.7670 H   0  0  0  0  0  0  0  0  0  0  0  0
   -0.7600   -5.9470   -4.9180 H   0  0  0  0  0  0  0  0  0  0  0  0
   -1.2210   -5.5520   -3.2450 H   0  0  0  0  0  0  0  0  0  0  0  0
   -0.2010   -4.4290   -4.1760 H   0  0  0  0  0  0  0  0  0  0  0  0
    3.5960   -0.2890    0.2500 H   0  0  0  0  0  0  0  0  0  0  0  0
  1  5  1  0  0  0  0
  1  6  1  0  0  0  0
  1  7  2  0  0  0  0
  1  8  2  0  0  0  0
  2  3  1  0  0  0  0
  2  4  1  0  0  0  0
  2 11  1  0  0  0  0
  3 10  1  0  0  0  0
  3 12  2  0  0  0  0
  4  9  1  0  0  0  0
  4 29  1  0  0  0  0
  4 30  1  0  0  0  0
  5 14  2  0  0  0  0
  5 15  1  0  0  0  0
  6 19  1  0  0  0  0
  6 20  1  0  0  0  0
  9 13  2  0  0  0  0
  9 21  1  0  0  0  0
 10 17  2  0  0  0  0
 10 18  1  0  0  0  0
 11 16  1  0  0  0  0
 11 31  1  0  0  0  0
 11 32  1  0  0  0  0
 13 16  1  0  0  0  0
 13 22  1  0  0  0  0
 14 17  1  0  0  0  0
 14 33  1  0  0  0  0
 15 18  2  0  0  0  0
 15 34  1  0  0  0  0
 16 35  1  0  0  0  0
 16 36  1  0  0  0  0
 17 37  1  0  0  0  0
 18 38  1  0  0  0  0
 19 24  1  0  0  0  0
 19 39  1  0  0  0  0
 19 40  1  0  0  0  0
 20 23  1  0  0  0  0
 20 41  1  0  0  0  0
 20 42  1  0  0  0  0
 21 25  2  0  0  0  0
 21 43  1  0  0  0  0
 22 28  2  0  0  0  0
 22 44  1  0  0  0  0
 23 27  1  0  0  0  0
 23 45  1  0  0  0  0
 23 46  1  0  0  0  0
 24 26  1  0  0  0  0
 24 47  1  0  0  0  0
 24 48  1  0  0  0  0
 25 28  1  0  0  0  0
 25 49  1  0  0  0  0
 26 50  1  0  0  0  0
 26 51  1  0  0  0  0
 26 52  1  0  0  0  0
 27 53  1  0  0  0  0
 27 54  1  0  0  0  0
 27 55  1  0  0  0  0
 28 56  1  0  0  0  0
M  END
>  <$CLUSTER>
838

>  <INDEX>
270047

$$$$
ASDI 100018405
  MOE2020           3D

 31 32  0  0  0  0  0  0  0  0999 V2000
    2.7210   -2.0220   -0.6460 S   0  0  0  0  0  0  0  0  0  0  0  0
    1.2690   -1.6470    0.1860 N   0  0  0  0  0  0  0  0  0  0  0  0
    0.0960   -1.3580   -0.5980 C   0  0  0  0  0  0  0  0  0  0  0  0
   -0.4290   -0.0590   -0.6150 C   0  0  0  0  0  0  0  0  0  0  0  0
   -1.5390    0.2420   -1.4110 C   0  0  0  0  0  0  0  0  0  0  0  0
    0.2220    0.9220    0.1030 O   0  0  0  0  0  0  0  0  0  0  0  0
    3.7200   -2.3840    0.3410 O   0  0  0  0  0  0  0  0  0  0  0  0
    2.4630   -2.8800   -1.7840 O   0  0  0  0  0  0  0  0  0  0  0  0
   -0.5180   -2.3620   -1.3510 C   0  0  0  0  0  0  0  0  0  0  0  0
   -2.1460   -0.7650   -2.1610 C   0  0  0  0  0  0  0  0  0  0  0  0
    3.1640   -0.4130   -1.2630 C   0  0  0  0  0  0  0  0  0  0  0  0
   -0.5360    1.6610    0.9840 C   0  0  0  0  0  0  0  0  0  0  0  0
   -1.6390   -2.0650   -2.1270 C   0  0  0  0  0  0  0  0  0  0  0  0
   -3.5070   -0.3940   -3.1150 Cl  0  0  0  0  0  0  0  0  0  0  0  0
   -0.2900    3.0350    1.0260 C   0  0  0  0  0  0  0  0  0  0  0  0
   -1.4610    1.0860    1.8610 C   0  0  0  0  0  0  0  0  0  0  0  0
   -0.9960    3.8400    1.9200 C   0  0  0  0  0  0  0  0  0  0  0  0
   -2.1650    1.8960    2.7530 C   0  0  0  0  0  0  0  0  0  0  0  0
   -1.9360    3.2720    2.7810 C   0  0  0  0  0  0  0  0  0  0  0  0
    1.2370   -1.6290    1.1950 H   0  0  0  0  0  0  0  0  0  0  0  0
   -1.9250    1.2500   -1.4450 H   0  0  0  0  0  0  0  0  0  0  0  0
   -0.1250   -3.3680   -1.3320 H   0  0  0  0  0  0  0  0  0  0  0  0
    3.3640    0.2550   -0.4250 H   0  0  0  0  0  0  0  0  0  0  0  0
    2.3430   -0.0130   -1.8580 H   0  0  0  0  0  0  0  0  0  0  0  0
    4.0560   -0.4950   -1.8840 H   0  0  0  0  0  0  0  0  0  0  0  0
   -2.1160   -2.8440   -2.7030 H   0  0  0  0  0  0  0  0  0  0  0  0
    0.4450    3.4730    0.3680 H   0  0  0  0  0  0  0  0  0  0  0  0
   -1.6300    0.0190    1.8480 H   0  0  0  0  0  0  0  0  0  0  0  0
   -0.8150    4.9040    1.9460 H   0  0  0  0  0  0  0  0  0  0  0  0
   -2.8890    1.4570    3.4230 H   0  0  0  0  0  0  0  0  0  0  0  0
   -2.4860    3.8970    3.4690 H   0  0  0  0  0  0  0  0  0  0  0  0
  1  2  1  0  0  0  0
  1  7  2  0  0  0  0
  1  8  2  0  0  0  0
  1 11  1  0  0  0  0
  2  3  1  0  0  0  0
  2 20  1  0  0  0  0
  3  4  2  0  0  0  0
  3  9  1  0  0  0  0
  4  5  1  0  0  0  0
  4  6  1  0  0  0  0
  5 10  2  0  0  0  0
  5 21  1  0  0  0  0
  6 12  1  0  0  0  0
  9 13  2  0  0  0  0
  9 22  1  0  0  0  0
 10 13  1  0  0  0  0
 10 14  1  0  0  0  0
 11 23  1  0  0  0  0
 11 24  1  0  0  0  0
 11 25  1  0  0  0  0
 12 15  2  0  0  0  0
 12 16  1  0  0  0  0
 13 26  1  0  0  0  0
 15 17  1  0  0  0  0
 15 27  1  0  0  0  0
 16 18  2  0  0  0  0
 16 28  1  0  0  0  0
 17 19  2  0  0  0  0
 17 29  1  0  0  0  0
 18 19  1  0  0  0  0
 18 30  1  0  0  0  0
 19 31  1  0  0  0  0
M  END
>  <$CLUSTER>
839

>  <INDEX>
3627

$$$$
Maybridge BTB 07318
  MOE2020           3D

 30 31  0  0  0  0  0  0  0  0999 V2000
    0.4340    0.2170   -0.2860 C   0  0  0  0  0  0  0  0  0  0  0  0
   -0.7930   -1.6010    2.4150 S   0  0  0  0  0  0  0  0  0  0  0  0
    1.6800    0.3630    0.4560 N   0  3  0  0  0  0  0  0  0  0  0  0
   -0.7440    0.0100    0.4350 C   0  0  0  0  0  0  0  0  0  0  0  0
   -0.7730   -0.0490    1.8020 O   0  0  0  0  0  0  0  0  0  0  0  0
    0.4650    0.2680   -1.6420 N   0  0  0  0  0  0  0  0  0  0  0  0
   -0.8240   -1.1010    4.1500 C   0  0  0  0  0  0  0  0  0  0  0  0
    0.4750   -2.2440    2.1850 O   0  0  0  0  0  0  0  0  0  0  0  0
   -2.0580   -2.2310    2.1360 O   0  0  0  0  0  0  0  0  0  0  0  0
    2.6540   -0.2670    0.0250 O   0  5  0  0  0  0  0  0  0  0  0  0
    1.6900    1.1240    1.4320 O   0  0  0  0  0  0  0  0  0  0  0  0
   -1.9440   -0.0880   -0.2720 C   0  0  0  0  0  0  0  0  0  0  0  0
   -0.7150    0.1470   -2.2920 C   0  0  0  0  0  0  0  0  0  0  0  0
   -1.5130   -2.0090    5.0530 C   0  0  0  0  0  0  0  0  0  0  0  0
   -0.1580   -0.0350    4.6400 C   0  0  0  0  0  0  0  0  0  0  0  0
   -0.8880   -0.5600    6.8850 C   0  0  0  0  0  0  0  0  0  0  0  0
   -1.9340   -0.0240   -1.6600 C   0  0  0  0  0  0  0  0  0  0  0  0
   -0.1950    0.2690    6.0000 C   0  0  0  0  0  0  0  0  0  0  0  0
   -1.5450   -1.6970    6.4110 C   0  0  0  0  0  0  0  0  0  0  0  0
   -0.9230   -0.1700    8.5420 Cl  0  0  0  0  0  0  0  0  0  0  0  0
   -0.6620    0.2070   -3.8380 C   0  0  0  0  0  0  0  0  0  0  0  0
   -2.8770   -0.2130    0.2580 H   0  0  0  0  0  0  0  0  0  0  0  0
   -1.9890   -2.9040    4.6800 H   0  0  0  0  0  0  0  0  0  0  0  0
    0.4120    0.5910    3.9700 H   0  0  0  0  0  0  0  0  0  0  0  0
   -2.8490   -0.1050   -2.2280 H   0  0  0  0  0  0  0  0  0  0  0  0
    0.3130    1.1470    6.3700 H   0  0  0  0  0  0  0  0  0  0  0  0
   -2.0790   -2.3360    7.0980 H   0  0  0  0  0  0  0  0  0  0  0  0
    0.3700    0.3440   -4.1610 H   0  0  0  0  0  0  0  0  0  0  0  0
   -1.2670    1.0420   -4.1900 H   0  0  0  0  0  0  0  0  0  0  0  0
   -1.0510   -0.7230   -4.2510 H   0  0  0  0  0  0  0  0  0  0  0  0
  1  3  1  0  0  0  0
  1  4  2  0  0  0  0
  1  6  1  0  0  0  0
  2  5  1  0  0  0  0
  2  7  1  0  0  0  0
  2  8  2  0  0  0  0
  2  9  2  0  0  0  0
  3 10  1  0  0  0  0
  3 11  2  0  0  0  0
  4  5  1  0  0  0  0
  4 12  1  0  0  0  0
  6 13  2  0  0  0  0
  7 14  1  0  0  0  0
  7 15  2  0  0  0  0
 12 17  2  0  0  0  0
 12 22  1  0  0  0  0
 13 17  1  0  0  0  0
 13 21  1  0  0  0  0
 14 19  2  0  0  0  0
 14 23  1  0  0  0  0
 15 18  1  0  0  0  0
 15 24  1  0  0  0  0
 16 18  2  0  0  0  0
 16 19  1  0  0  0  0
 16 20  1  0  0  0  0
 17 25  1  0  0  0  0
 18 26  1  0  0  0  0
 19 27  1  0  0  0  0
 21 28  1  0  0  0  0
 21 29  1  0  0  0  0
 21 30  1  0  0  0  0
M  CHG  1   3   1
M  CHG  1  10  -1
M  END
>  <$CLUSTER>
840

>  <INDEX>
543149

$$$$
Cerep CER0136091
  MOE2020           3D

 39 41  0  0  0  0  0  0  0  0999 V2000
   -1.7240    0.4990    0.5430 C   0  0  0  0  0  0  0  0  0  0  0  0
   -0.3500    0.5190    0.0370 C   0  0  0  0  0  0  0  0  0  0  0  0
    0.4130   -0.6430   -0.0470 C   0  0  0  0  0  0  0  0  0  0  0  0
   -2.0590    1.5080    1.3900 N   0  0  0  0  0  0  0  0  0  0  0  0
   -5.5660    1.4270    2.6400 C   0  0  0  0  0  0  0  0  0  0  0  0
    1.6850   -0.6660   -0.5350 N   0  0  0  0  0  0  0  0  0  0  0  0
   -3.2430    1.8300    2.0670 C   0  0  0  0  0  0  0  0  0  0  0  0
   -2.5230   -0.3670    0.2030 O   0  0  0  0  0  0  0  0  0  0  0  0
   -4.4070    1.0650    1.9460 C   0  0  0  0  0  0  0  0  0  0  0  0
   -5.5730    2.5540    3.4600 C   0  0  0  0  0  0  0  0  0  0  0  0
   -4.4210    3.3220    3.5870 C   0  0  0  0  0  0  0  0  0  0  0  0
   -3.2630    2.9630    2.8960 C   0  0  0  0  0  0  0  0  0  0  0  0
   -0.1200   -1.8350    0.4330 O   0  0  0  0  0  0  0  0  0  0  0  0
    0.2170    1.7180   -0.4080 C   0  0  0  0  0  0  0  0  0  0  0  0
   -6.8760    0.7320    2.6760 C   0  0  0  0  0  0  0  0  0  0  0  0
   -7.7740    1.8340    3.2460 C   0  0  0  0  0  0  0  0  0  0  0  0
    2.2040    0.5150   -0.9560 C   0  0  0  0  0  0  0  0  0  0  0  0
   -6.8830    2.7210    4.1200 C   0  0  0  0  0  0  0  0  0  0  0  0
    0.7410   -2.9650    0.2520 C   0  0  0  0  0  0  0  0  0  0  0  0
    1.5160    1.7180   -0.9120 C   0  0  0  0  0  0  0  0  0  0  0  0
    0.0790   -4.2000    0.8010 C   0  0  0  0  0  0  0  0  0  0  0  0
   -1.3040    2.1550    1.5670 H   0  0  0  0  0  0  0  0  0  0  0  0
   -4.4110    0.1900    1.3130 H   0  0  0  0  0  0  0  0  0  0  0  0
   -4.4220    4.1970    4.2210 H   0  0  0  0  0  0  0  0  0  0  0  0
   -2.3720    3.5640    3.0000 H   0  0  0  0  0  0  0  0  0  0  0  0
   -0.3480    2.6370   -0.3610 H   0  0  0  0  0  0  0  0  0  0  0  0
   -6.8490   -0.1400    3.3290 H   0  0  0  0  0  0  0  0  0  0  0  0
   -7.1970    0.4300    1.6790 H   0  0  0  0  0  0  0  0  0  0  0  0
   -8.5710    1.3960    3.8460 H   0  0  0  0  0  0  0  0  0  0  0  0
   -8.2090    2.4200    2.4360 H   0  0  0  0  0  0  0  0  0  0  0  0
    3.2100    0.5180   -1.3480 H   0  0  0  0  0  0  0  0  0  0  0  0
   -7.2110    3.7600    4.0990 H   0  0  0  0  0  0  0  0  0  0  0  0
   -6.8580    2.3690    5.1510 H   0  0  0  0  0  0  0  0  0  0  0  0
    1.6800   -2.7930    0.7780 H   0  0  0  0  0  0  0  0  0  0  0  0
    0.9400   -3.1020   -0.8110 H   0  0  0  0  0  0  0  0  0  0  0  0
    1.9750    2.6320   -1.2590 H   0  0  0  0  0  0  0  0  0  0  0  0
   -0.1200   -4.0630    1.8640 H   0  0  0  0  0  0  0  0  0  0  0  0
    0.7370   -5.0570    0.6620 H   0  0  0  0  0  0  0  0  0  0  0  0
   -0.8600   -4.3740    0.2750 H   0  0  0  0  0  0  0  0  0  0  0  0
  1  2  1  0  0  0  0
  1  4  1  0  0  0  0
  1  8  2  0  0  0  0
  2  3  2  0  0  0  0
  2 14  1  0  0  0  0
  3  6  1  0  0  0  0
  3 13  1  0  0  0  0
  4  7  1  0  0  0  0
  4 22  1  0  0  0  0
  5  9  2  0  0  0  0
  5 10  1  0  0  0  0
  5 15  1  0  0  0  0
  6 17  2  0  0  0  0
  7  9  1  0  0  0  0
  7 12  2  0  0  0  0
  9 23  1  0  0  0  0
 10 11  2  0  0  0  0
 10 18  1  0  0  0  0
 11 12  1  0  0  0  0
 11 24  1  0  0  0  0
 12 25  1  0  0  0  0
 13 19  1  0  0  0  0
 14 20  2  0  0  0  0
 14 26  1  0  0  0  0
 15 16  1  0  0  0  0
 15 27  1  0  0  0  0
 15 28  1  0  0  0  0
 16 18  1  0  0  0  0
 16 29  1  0  0  0  0
 16 30  1  0  0  0  0
 17 20  1  0  0  0  0
 17 31  1  0  0  0  0
 18 32  1  0  0  0  0
 18 33  1  0  0  0  0
 19 21  1  0  0  0  0
 19 34  1  0  0  0  0
 19 35  1  0  0  0  0
 20 36  1  0  0  0  0
 21 37  1  0  0  0  0
 21 38  1  0  0  0  0
 21 39  1  0  0  0  0
M  END
>  <$CLUSTER>
841

>  <INDEX>
189333

$$$$
Chem T&I IVK/0000376
  MOE2020           3D

 35 36  0  0  0  0  0  0  0  0999 V2000
   -2.2230    0.1170    0.4870 C   0  0  0  0  0  0  0  0  0  0  0  0
   -0.9060    0.2950    0.9000 N   0  0  0  0  0  0  0  0  0  0  0  0
    1.5190   -0.9070   -1.6940 C   0  0  0  0  0  0  0  0  0  0  0  0
    0.2990   -0.6150   -1.0750 C   0  0  0  0  0  0  0  0  0  0  0  0
   -3.1140    0.5630    1.4510 N   0  0  0  0  0  0  0  0  0  0  0  0
    0.2750   -0.0350    0.1970 C   0  0  0  0  0  0  0  0  0  0  0  0
    2.7220   -0.6230   -1.0520 C   0  0  0  0  0  0  0  0  0  0  0  0
   -2.6140   -0.3640   -0.5730 O   0  0  0  0  0  0  0  0  0  0  0  0
    2.7090   -0.0450    0.2140 C   0  0  0  0  0  0  0  0  0  0  0  0
   -4.5280    0.5860    1.4760 C   0  0  0  0  0  0  0  0  0  0  0  0
    1.4390   -1.4610   -2.9080 F   0  0  0  0  0  0  0  0  0  0  0  0
    1.4930    0.2470    0.8350 C   0  0  0  0  0  0  0  0  0  0  0  0
    3.9210   -0.8720   -1.5770 F   0  0  0  0  0  0  0  0  0  0  0  0
   -7.3320    0.6750    1.6250 C   0  0  0  0  0  0  0  0  0  0  0  0
   -5.3090    0.1090    0.4180 C   0  0  0  0  0  0  0  0  0  0  0  0
   -5.1710    1.1070    2.6090 C   0  0  0  0  0  0  0  0  0  0  0  0
   -6.7050    0.1550    0.4950 C   0  0  0  0  0  0  0  0  0  0  0  0
   -6.5640    1.1510    2.6830 C   0  0  0  0  0  0  0  0  0  0  0  0
   -8.6900    0.7710    1.8130 O   0  0  0  0  0  0  0  0  0  0  0  0
   -9.5290    0.2970    0.7590 C   0  0  0  0  0  0  0  0  0  0  0  0
  -10.9730    0.5010    1.1850 C   0  0  0  0  0  0  0  0  0  0  0  0
   -0.7790    0.7100    1.8120 H   0  0  0  0  0  0  0  0  0  0  0  0
   -0.6280   -0.8380   -1.5820 H   0  0  0  0  0  0  0  0  0  0  0  0
   -2.6770    0.9370    2.2810 H   0  0  0  0  0  0  0  0  0  0  0  0
    3.6390    0.1780    0.7160 H   0  0  0  0  0  0  0  0  0  0  0  0
    1.4900    0.6950    1.8180 H   0  0  0  0  0  0  0  0  0  0  0  0
   -4.8320   -0.2970   -0.4620 H   0  0  0  0  0  0  0  0  0  0  0  0
   -4.5810    1.4780    3.4340 H   0  0  0  0  0  0  0  0  0  0  0  0
   -7.3000   -0.2150   -0.3270 H   0  0  0  0  0  0  0  0  0  0  0  0
   -7.0460    1.5540    3.5610 H   0  0  0  0  0  0  0  0  0  0  0  0
   -9.3410   -0.7620    0.5830 H   0  0  0  0  0  0  0  0  0  0  0  0
   -9.3290    0.8580   -0.1540 H   0  0  0  0  0  0  0  0  0  0  0  0
  -11.1650   -0.0620    2.0980 H   0  0  0  0  0  0  0  0  0  0  0  0
  -11.6380    0.1510    0.3950 H   0  0  0  0  0  0  0  0  0  0  0  0
  -11.1520    1.5610    1.3670 H   0  0  0  0  0  0  0  0  0  0  0  0
  1  2  1  0  0  0  0
  1  5  1  0  0  0  0
  1  8  2  0  0  0  0
  2  6  1  0  0  0  0
  2 22  1  0  0  0  0
  3  4  2  0  0  0  0
  3  7  1  0  0  0  0
  3 11  1  0  0  0  0
  4  6  1  0  0  0  0
  4 23  1  0  0  0  0
  5 10  1  0  0  0  0
  5 24  1  0  0  0  0
  6 12  2  0  0  0  0
  7  9  2  0  0  0  0
  7 13  1  0  0  0  0
  9 12  1  0  0  0  0
  9 25  1  0  0  0  0
 10 15  2  0  0  0  0
 10 16  1  0  0  0  0
 12 26  1  0  0  0  0
 14 17  2  0  0  0  0
 14 18  1  0  0  0  0
 14 19  1  0  0  0  0
 15 17  1  0  0  0  0
 15 27  1  0  0  0  0
 16 18  2  0  0  0  0
 16 28  1  0  0  0  0
 17 29  1  0  0  0  0
 18 30  1  0  0  0  0
 19 20  1  0  0  0  0
 20 21  1  0  0  0  0
 20 31  1  0  0  0  0
 20 32  1  0  0  0  0
 21 33  1  0  0  0  0
 21 34  1  0  0  0  0
 21 35  1  0  0  0  0
M  END
>  <$CLUSTER>
842

>  <INDEX>
553079

$$$$
Maybridge BTB 08527
  MOE2020           3D

 42 45  0  0  0  0  0  0  0  0999 V2000
    0.9930   -0.0920    2.0750 S   0  0  0  0  0  0  0  0  0  0  0  0
    0.7600    0.3240    0.3840 C   0  0  0  0  0  0  0  0  0  0  0  0
    2.4420    0.6300    2.4880 N   0  0  0  0  0  0  0  0  0  0  0  0
   -0.3940   -0.1500   -0.2540 C   0  0  0  0  0  0  0  0  0  0  0  0
    1.2200   -1.5230    2.1760 O   0  0  0  0  0  0  0  0  0  0  0  0
   -0.0240    0.5800    2.8650 O   0  0  0  0  0  0  0  0  0  0  0  0
    1.8950    4.1780    3.5220 N   0  0  0  0  0  0  0  0  0  0  0  0
    2.6910    4.8040    2.6160 C   0  0  0  0  0  0  0  0  0  0  0  0
   -1.3360   -0.9120    0.3730 N   0  0  0  0  0  0  0  0  0  0  0  0
    2.5490    2.0640    2.5050 C   0  0  0  0  0  0  0  0  0  0  0  0
    2.8270    6.1800    2.6580 O   0  0  0  0  0  0  0  0  0  0  0  0
   -0.5550    0.2030   -1.6220 C   0  0  0  0  0  0  0  0  0  0  0  0
    1.8480    2.8180    3.4440 C   0  0  0  0  0  0  0  0  0  0  0  0
    1.7560    6.9090    3.1360 C   0  0  0  0  0  0  0  0  0  0  0  0
    1.7150    1.1070   -0.2830 C   0  0  0  0  0  0  0  0  0  0  0  0
   -0.3000    8.5470    4.0710 C   0  0  0  0  0  0  0  0  0  0  0  0
    3.4340    4.1360    1.6500 C   0  0  0  0  0  0  0  0  0  0  0  0
    3.3620    2.7440    1.5990 C   0  0  0  0  0  0  0  0  0  0  0  0
   -1.3390    9.2820    4.4710 F   0  0  0  0  0  0  0  0  0  0  0  0
    2.0160    7.8530    4.1320 C   0  0  0  0  0  0  0  0  0  0  0  0
    0.4730    6.8050    2.5800 C   0  0  0  0  0  0  0  0  0  0  0  0
    0.9840    8.6660    4.6050 C   0  0  0  0  0  0  0  0  0  0  0  0
   -0.5550    7.6210    3.0570 C   0  0  0  0  0  0  0  0  0  0  0  0
    1.5320    1.4360   -1.6200 C   0  0  0  0  0  0  0  0  0  0  0  0
   -2.4220   -1.3250   -0.3270 C   0  0  0  0  0  0  0  0  0  0  0  0
    0.4000    0.9860   -2.2890 C   0  0  0  0  0  0  0  0  0  0  0  0
   -1.6920   -0.2440   -2.3100 C   0  0  0  0  0  0  0  0  0  0  0  0
   -2.6410   -1.0200   -1.6570 C   0  0  0  0  0  0  0  0  0  0  0  0
    3.2410    0.0600    2.7250 H   0  0  0  0  0  0  0  0  0  0  0  0
    1.2280    2.2920    4.1550 H   0  0  0  0  0  0  0  0  0  0  0  0
    2.5920    1.4540    0.2430 H   0  0  0  0  0  0  0  0  0  0  0  0
    4.0530    4.6830    0.9540 H   0  0  0  0  0  0  0  0  0  0  0  0
    3.9320    2.1970    0.8630 H   0  0  0  0  0  0  0  0  0  0  0  0
    3.0130    7.9540    4.5350 H   0  0  0  0  0  0  0  0  0  0  0  0
    0.2810    6.0970    1.7870 H   0  0  0  0  0  0  0  0  0  0  0  0
    1.1790    9.3870    5.3850 H   0  0  0  0  0  0  0  0  0  0  0  0
   -1.5480    7.5360    2.6410 H   0  0  0  0  0  0  0  0  0  0  0  0
    2.2650    2.0380   -2.1370 H   0  0  0  0  0  0  0  0  0  0  0  0
   -3.1580   -1.9270    0.1850 H   0  0  0  0  0  0  0  0  0  0  0  0
    0.2540    1.2400   -3.3280 H   0  0  0  0  0  0  0  0  0  0  0  0
   -1.8300    0.0150   -3.3490 H   0  0  0  0  0  0  0  0  0  0  0  0
   -3.5220   -1.3740   -2.1720 H   0  0  0  0  0  0  0  0  0  0  0  0
  1  2  1  0  0  0  0
  1  3  1  0  0  0  0
  1  5  2  0  0  0  0
  1  6  2  0  0  0  0
  2  4  2  0  0  0  0
  2 15  1  0  0  0  0
  3 10  1  0  0  0  0
  3 29  1  0  0  0  0
  4  9  1  0  0  0  0
  4 12  1  0  0  0  0
  7  8  1  0  0  0  0
  7 13  2  0  0  0  0
  8 11  1  0  0  0  0
  8 17  2  0  0  0  0
  9 25  2  0  0  0  0
 10 13  1  0  0  0  0
 10 18  2  0  0  0  0
 11 14  1  0  0  0  0
 12 26  2  0  0  0  0
 12 27  1  0  0  0  0
 13 30  1  0  0  0  0
 14 20  2  0  0  0  0
 14 21  1  0  0  0  0
 15 24  2  0  0  0  0
 15 31  1  0  0  0  0
 16 19  1  0  0  0  0
 16 22  2  0  0  0  0
 16 23  1  0  0  0  0
 17 18  1  0  0  0  0
 17 32  1  0  0  0  0
 18 33  1  0  0  0  0
 20 22  1  0  0  0  0
 20 34  1  0  0  0  0
 21 23  2  0  0  0  0
 21 35  1  0  0  0  0
 22 36  1  0  0  0  0
 23 37  1  0  0  0  0
 24 26  1  0  0  0  0
 24 38  1  0  0  0  0
 25 28  1  0  0  0  0
 25 39  1  0  0  0  0
 26 40  1  0  0  0  0
 27 28  2  0  0  0  0
 27 41  1  0  0  0  0
 28 42  1  0  0  0  0
M  END
>  <$CLUSTER>
843

>  <INDEX>
543401

$$$$
Lithuania 3320543
  MOE2020           3D

 14 14  0  0  0  0  0  0  0  0999 V2000
   -0.6240   -0.5470    0.2570 C   0  0  0  0  0  0  0  0  0  0  0  0
    0.5310    0.3680   -0.2140 C   0  0  0  0  0  0  0  0  0  0  0  0
   -1.5760   -0.6720   -0.5670 O   0  5  0  0  0  0  0  0  0  0  0  0
   -0.4890   -1.0740    1.3990 O   0  0  0  0  0  0  0  0  0  0  0  0
    0.7370    0.5450   -1.6880 C   0  0  0  0  0  0  0  0  0  0  0  0
    1.3080    0.9690    0.6970 C   0  0  0  0  0  0  0  0  0  0  0  0
    2.5990    2.0020   -1.0940 C   0  0  0  0  0  0  0  0  0  0  0  0
    2.3660    1.8040    0.2670 C   0  0  0  0  0  0  0  0  0  0  0  0
    1.7890    1.3750   -2.0390 C   0  0  0  0  0  0  0  0  0  0  0  0
    3.9810    3.0930   -1.6650 Br  0  0  0  0  0  0  0  0  0  0  0  0
    0.1110    0.0610   -2.4230 H   0  0  0  0  0  0  0  0  0  0  0  0
    1.1280    0.8170    1.7510 H   0  0  0  0  0  0  0  0  0  0  0  0
    2.9970    2.2910    0.9960 H   0  0  0  0  0  0  0  0  0  0  0  0
    1.9900    1.5430   -3.0870 H   0  0  0  0  0  0  0  0  0  0  0  0
  1  2  1  0  0  0  0
  1  3  1  0  0  0  0
  1  4  2  0  0  0  0
  2  5  1  0  0  0  0
  2  6  2  0  0  0  0
  5  9  2  0  0  0  0
  5 11  1  0  0  0  0
  6  8  1  0  0  0  0
  6 12  1  0  0  0  0
  7  8  2  0  0  0  0
  7  9  1  0  0  0  0
  7 10  1  0  0  0  0
  8 13  1  0  0  0  0
  9 14  1  0  0  0  0
M  CHG  1   3  -1
M  END
>  <$CLUSTER>
844

>  <INDEX>
233902

$$$$
Asinex BAS 00025608
  MOE2020           3D

 32 34  0  0  0  0  0  0  0  0999 V2000
   -1.4230    0.8810   -1.3680 S   0  0  0  0  0  0  0  0  0  0  0  0
   -0.4950   -0.4020   -0.9750 O   0  0  0  0  0  0  0  0  0  0  0  0
   -2.4930    1.0230   -0.4010 O   0  0  0  0  0  0  0  0  0  0  0  0
   -0.5800    1.9930   -1.7570 O   0  0  0  0  0  0  0  0  0  0  0  0
   -2.1160    0.1830   -2.8450 C   0  0  0  0  0  0  0  0  0  0  0  0
    0.3080   -0.4270    0.1390 C   0  0  0  0  0  0  0  0  0  0  0  0
    1.2860    0.4700    2.1620 C   0  0  0  0  0  0  0  0  0  0  0  0
    0.4340    0.6130    1.0630 C   0  0  0  0  0  0  0  0  0  0  0  0
    2.0100   -0.7070    2.3420 C   0  0  0  0  0  0  0  0  0  0  0  0
    1.8850   -1.7460    1.4220 C   0  0  0  0  0  0  0  0  0  0  0  0
    1.0360   -1.6060    0.3240 C   0  0  0  0  0  0  0  0  0  0  0  0
    1.4180    1.5240    3.1030 C   0  0  0  0  0  0  0  0  0  0  0  0
   -1.4360   -0.6090   -3.7060 C   0  0  0  0  0  0  0  0  0  0  0  0
   -3.4660    0.6220   -3.1900 C   0  0  0  0  0  0  0  0  0  0  0  0
    2.8670   -0.8360    3.4590 C   0  0  0  0  0  0  0  0  0  0  0  0
    2.2670    1.3830    4.2010 C   0  0  0  0  0  0  0  0  0  0  0  0
   -2.0320   -1.0930   -4.8700 C   0  0  0  0  0  0  0  0  0  0  0  0
   -4.0540    0.1320   -4.3570 C   0  0  0  0  0  0  0  0  0  0  0  0
    2.9900    0.2060    4.3780 C   0  0  0  0  0  0  0  0  0  0  0  0
   -3.3390   -0.7250   -5.1950 C   0  0  0  0  0  0  0  0  0  0  0  0
   -0.1260    1.5270    0.9280 H   0  0  0  0  0  0  0  0  0  0  0  0
    2.4450   -2.6590    1.5590 H   0  0  0  0  0  0  0  0  0  0  0  0
    0.9410   -2.4130   -0.3870 H   0  0  0  0  0  0  0  0  0  0  0  0
    0.8590    2.4380    2.9690 H   0  0  0  0  0  0  0  0  0  0  0  0
   -0.4110   -0.8710   -3.4870 H   0  0  0  0  0  0  0  0  0  0  0  0
   -3.9990    1.3130   -2.5540 H   0  0  0  0  0  0  0  0  0  0  0  0
    3.4300   -1.7470    3.6020 H   0  0  0  0  0  0  0  0  0  0  0  0
    2.3640    2.1880    4.9150 H   0  0  0  0  0  0  0  0  0  0  0  0
   -1.4810   -1.7540   -5.5220 H   0  0  0  0  0  0  0  0  0  0  0  0
   -5.0640    0.4160   -4.6120 H   0  0  0  0  0  0  0  0  0  0  0  0
    3.6470    0.1000    5.2280 H   0  0  0  0  0  0  0  0  0  0  0  0
   -3.7980   -1.1040   -6.0960 H   0  0  0  0  0  0  0  0  0  0  0  0
  1  2  1  0  0  0  0
  1  3  2  0  0  0  0
  1  4  2  0  0  0  0
  1  5  1  0  0  0  0
  2  6  1  0  0  0  0
  5 13  2  0  0  0  0
  5 14  1  0  0  0  0
  6  8  2  0  0  0  0
  6 11  1  0  0  0  0
  7  8  1  0  0  0  0
  7  9  2  0  0  0  0
  7 12  1  0  0  0  0
  8 21  1  0  0  0  0
  9 10  1  0  0  0  0
  9 15  1  0  0  0  0
 10 11  2  0  0  0  0
 10 22  1  0  0  0  0
 11 23  1  0  0  0  0
 12 16  2  0  0  0  0
 12 24  1  0  0  0  0
 13 17  1  0  0  0  0
 13 25  1  0  0  0  0
 14 18  2  0  0  0  0
 14 26  1  0  0  0  0
 15 19  2  0  0  0  0
 15 27  1  0  0  0  0
 16 19  1  0  0  0  0
 16 28  1  0  0  0  0
 17 20  2  0  0  0  0
 17 29  1  0  0  0  0
 18 20  1  0  0  0  0
 18 30  1  0  0  0  0
 19 31  1  0  0  0  0
 20 32  1  0  0  0  0
M  END
>  <$CLUSTER>
845

>  <INDEX>
171808

$$$$
Chembridge 7463380
  MOE2020           3D

 38 40  0  0  0  0  0  0  0  0999 V2000
    3.1750    0.6410   -1.3880 N   0  0  0  0  0  0  0  0  0  0  0  0
    2.1230    0.9990   -0.6040 C   0  0  0  0  0  0  0  0  0  0  0  0
    3.3290   -0.5850   -2.2050 C   0  0  0  0  0  0  0  0  0  0  0  0
    1.1240    0.0730   -0.6430 N   0  0  0  0  0  0  0  0  0  0  0  0
   -0.1030   -0.0910    0.0420 C   0  0  0  0  0  0  0  0  0  0  0  0
    4.5740   -0.6770   -2.9340 C   0  0  0  0  0  0  0  0  0  0  0  0
   -2.2260    1.3220    2.9430 C   0  0  0  0  0  0  0  0  0  0  0  0
   -1.7450    0.4640    1.7550 C   0  0  0  0  0  0  0  0  0  0  0  0
   -0.5170    0.6930    1.1240 C   0  0  0  0  0  0  0  0  0  0  0  0
    4.9780   -1.9890   -3.2630 C   0  0  0  0  0  0  0  0  0  0  0  0
    2.2260    2.4530    0.2060 S   0  0  0  0  0  0  0  0  0  0  0  0
   -0.9620   -1.1330   -0.3740 C   0  0  0  0  0  0  0  0  0  0  0  0
    6.1520   -2.1830   -3.9950 C   0  0  0  0  0  0  0  0  0  0  0  0
    2.4130   -1.4020   -2.1970 O   0  0  0  0  0  0  0  0  0  0  0  0
   -3.4720    1.4160    3.1390 O   0  0  0  0  0  0  0  0  0  0  0  0
    5.3160    0.4040   -3.3580 C   0  0  0  0  0  0  0  0  0  0  0  0
   -2.5830   -0.5590    1.3220 C   0  0  0  0  0  0  0  0  0  0  0  0
   -2.1900   -1.3620    0.2560 C   0  0  0  0  0  0  0  0  0  0  0  0
    6.9080   -1.0880   -4.4050 C   0  0  0  0  0  0  0  0  0  0  0  0
    6.4900    0.2030   -4.0900 C   0  0  0  0  0  0  0  0  0  0  0  0
   -1.2780    1.8640    3.5810 O   0  5  0  0  0  0  0  0  0  0  0  0
   -0.5480   -2.1790   -1.6950 Cl  0  0  0  0  0  0  0  0  0  0  0  0
    6.5770   -3.4930   -4.3200 C   0  0  0  0  0  0  0  0  0  0  0  0
    8.0910   -1.3000   -5.1530 C   0  0  0  0  0  0  0  0  0  0  0  0
    7.7460   -3.6890   -5.0540 C   0  0  0  0  0  0  0  0  0  0  0  0
    8.5010   -2.5950   -5.4700 C   0  0  0  0  0  0  0  0  0  0  0  0
    3.9470    1.2920   -1.4170 H   0  0  0  0  0  0  0  0  0  0  0  0
    1.2990   -0.6630   -1.3120 H   0  0  0  0  0  0  0  0  0  0  0  0
    0.1220    1.4880    1.4780 H   0  0  0  0  0  0  0  0  0  0  0  0
    4.3840   -2.8360   -2.9510 H   0  0  0  0  0  0  0  0  0  0  0  0
    4.9900    1.4070   -3.1250 H   0  0  0  0  0  0  0  0  0  0  0  0
   -3.5320   -0.7280    1.8100 H   0  0  0  0  0  0  0  0  0  0  0  0
   -2.8320   -2.1610   -0.0850 H   0  0  0  0  0  0  0  0  0  0  0  0
    7.0750    1.0520   -4.4120 H   0  0  0  0  0  0  0  0  0  0  0  0
    5.9940   -4.3430   -3.9990 H   0  0  0  0  0  0  0  0  0  0  0  0
    8.6790   -0.4550   -5.4800 H   0  0  0  0  0  0  0  0  0  0  0  0
    8.0670   -4.6900   -5.3000 H   0  0  0  0  0  0  0  0  0  0  0  0
    9.4060   -2.7500   -6.0390 H   0  0  0  0  0  0  0  0  0  0  0  0
  1  2  1  0  0  0  0
  1  3  1  0  0  0  0
  1 27  1  0  0  0  0
  2  4  1  0  0  0  0
  2 11  2  0  0  0  0
  3  6  1  0  0  0  0
  3 14  2  0  0  0  0
  4  5  1  0  0  0  0
  4 28  1  0  0  0  0
  5  9  2  0  0  0  0
  5 12  1  0  0  0  0
  6 10  2  0  0  0  0
  6 16  1  0  0  0  0
  7  8  1  0  0  0  0
  7 15  2  0  0  0  0
  7 21  1  0  0  0  0
  8  9  1  0  0  0  0
  8 17  2  0  0  0  0
  9 29  1  0  0  0  0
 10 13  1  0  0  0  0
 10 30  1  0  0  0  0
 12 18  2  0  0  0  0
 12 22  1  0  0  0  0
 13 19  2  0  0  0  0
 13 23  1  0  0  0  0
 16 20  2  0  0  0  0
 16 31  1  0  0  0  0
 17 18  1  0  0  0  0
 17 32  1  0  0  0  0
 18 33  1  0  0  0  0
 19 20  1  0  0  0  0
 19 24  1  0  0  0  0
 20 34  1  0  0  0  0
 23 25  2  0  0  0  0
 23 35  1  0  0  0  0
 24 26  2  0  0  0  0
 24 36  1  0  0  0  0
 25 26  1  0  0  0  0
 25 37  1  0  0  0  0
 26 38  1  0  0  0  0
M  CHG  1  21  -1
M  END
>  <$CLUSTER>
846

>  <INDEX>
78750

$$$$
Chembridge 6665155
  MOE2020           3D

 30 31  0  0  0  0  0  0  0  0999 V2000
   -3.4500    0.2490    0.5960 N   0  0  0  0  0  0  0  0  0  0  0  0
   -2.3320   -0.1900   -0.0460 C   0  0  0  0  0  0  0  0  0  0  0  0
   -3.5340    1.1680    1.7550 C   0  0  0  0  0  0  0  0  0  0  0  0
   -1.1960    0.3250    0.5070 N   0  0  0  0  0  0  0  0  0  0  0  0
    2.1290   -0.6340   -0.9720 C   0  0  0  0  0  0  0  0  0  0  0  0
    0.7410   -0.5810   -0.7910 C   0  0  0  0  0  0  0  0  0  0  0  0
   -2.5450   -1.2300   -1.3320 S   0  0  0  0  0  0  0  0  0  0  0  0
    0.1820    0.1930    0.2270 C   0  0  0  0  0  0  0  0  0  0  0  0
    2.9780    0.0870   -0.1360 C   0  0  0  0  0  0  0  0  0  0  0  0
   -2.4870    1.6070    2.2200 O   0  0  0  0  0  0  0  0  0  0  0  0
   -4.8770    1.4450    2.2130 C   0  0  0  0  0  0  0  0  0  0  0  0
    2.4390    0.8650    0.8850 C   0  0  0  0  0  0  0  0  0  0  0  0
    2.7650   -1.5930   -2.2300 Cl  0  0  0  0  0  0  0  0  0  0  0  0
    1.0530    0.9160    1.0630 C   0  0  0  0  0  0  0  0  0  0  0  0
    4.3050    0.0870   -0.2440 F   0  0  0  0  0  0  0  0  0  0  0  0
   -4.9760    1.8440    3.5640 C   0  0  0  0  0  0  0  0  0  0  0  0
   -6.0020    1.4040    1.4180 C   0  0  0  0  0  0  0  0  0  0  0  0
   -6.2270    2.1660    4.0950 C   0  0  0  0  0  0  0  0  0  0  0  0
   -7.2510    1.7260    1.9550 C   0  0  0  0  0  0  0  0  0  0  0  0
   -7.3640    2.1040    3.2910 C   0  0  0  0  0  0  0  0  0  0  0  0
   -4.3300   -0.0940    0.2380 H   0  0  0  0  0  0  0  0  0  0  0  0
   -1.3820    0.9360    1.2900 H   0  0  0  0  0  0  0  0  0  0  0  0
    0.0960   -1.1460   -1.4470 H   0  0  0  0  0  0  0  0  0  0  0  0
    3.0900    1.4280    1.5380 H   0  0  0  0  0  0  0  0  0  0  0  0
    0.6430    1.5220    1.8570 H   0  0  0  0  0  0  0  0  0  0  0  0
   -4.0920    1.9000    4.1810 H   0  0  0  0  0  0  0  0  0  0  0  0
   -5.9180    1.1230    0.3790 H   0  0  0  0  0  0  0  0  0  0  0  0
   -6.3140    2.4630    5.1300 H   0  0  0  0  0  0  0  0  0  0  0  0
   -8.1320    1.6820    1.3320 H   0  0  0  0  0  0  0  0  0  0  0  0
   -8.3320    2.3490    3.7030 H   0  0  0  0  0  0  0  0  0  0  0  0
  1  2  1  0  0  0  0
  1  3  1  0  0  0  0
  1 21  1  0  0  0  0
  2  4  1  0  0  0  0
  2  7  2  0  0  0  0
  3 10  2  0  0  0  0
  3 11  1  0  0  0  0
  4  8  1  0  0  0  0
  4 22  1  0  0  0  0
  5  6  2  0  0  0  0
  5  9  1  0  0  0  0
  5 13  1  0  0  0  0
  6  8  1  0  0  0  0
  6 23  1  0  0  0  0
  8 14  2  0  0  0  0
  9 12  2  0  0  0  0
  9 15  1  0  0  0  0
 11 16  2  0  0  0  0
 11 17  1  0  0  0  0
 12 14  1  0  0  0  0
 12 24  1  0  0  0  0
 14 25  1  0  0  0  0
 16 18  1  0  0  0  0
 16 26  1  0  0  0  0
 17 19  2  0  0  0  0
 17 27  1  0  0  0  0
 18 20  2  0  0  0  0
 18 28  1  0  0  0  0
 19 20  1  0  0  0  0
 19 29  1  0  0  0  0
 20 30  1  0  0  0  0
M  END
>  <$CLUSTER>
847

>  <INDEX>
67090

$$$$
Chem T&I CTI-PMOS-0009106
  MOE2020           3D

 48 50  0  0  0  0  0  0  0  0999 V2000
   -2.1990    0.0100    0.4520 C   0  0  0  0  0  0  0  0  0  0  0  0
   -0.8920    0.1200    0.9090 N   0  0  0  0  0  0  0  0  0  0  0  0
    4.5200   -2.1210   -1.6930 N   0  3  0  0  0  0  0  0  0  0  0  0
   -3.1880    0.3230    1.5480 C   0  0  0  0  0  0  0  0  0  0  0  0
   -2.5830   -0.2950   -0.6720 O   0  0  0  0  0  0  0  0  0  0  0  0
    4.0890   -0.7210   -1.8230 C   0  0  0  0  0  0  0  0  0  0  0  0
   -4.4890   -0.2480    1.3950 C   0  0  0  0  0  0  0  0  0  0  0  0
   -2.9400    1.1530    2.6160 C   0  0  0  0  0  0  0  0  0  0  0  0
    0.2980   -0.0960    0.1750 C   0  0  0  0  0  0  0  0  0  0  0  0
    2.7590   -0.4830   -1.1240 C   0  0  0  0  0  0  0  0  0  0  0  0
   -3.9290    1.4070    3.5680 C   0  0  0  0  0  0  0  0  0  0  0  0
   -5.4740    0.0100    2.3500 C   0  0  0  0  0  0  0  0  0  0  0  0
   -5.1940    0.8350    3.4370 C   0  0  0  0  0  0  0  0  0  0  0  0
    0.3360   -0.4680   -1.1720 C   0  0  0  0  0  0  0  0  0  0  0  0
    1.5080    0.0790    0.8630 C   0  0  0  0  0  0  0  0  0  0  0  0
    1.5630   -0.6600   -1.8160 C   0  0  0  0  0  0  0  0  0  0  0  0
    2.7310   -0.1130    0.2180 C   0  0  0  0  0  0  0  0  0  0  0  0
    5.6280   -2.4670   -2.6770 C   0  0  0  0  0  0  0  0  0  0  0  0
    4.9360   -2.5320   -0.2960 C   0  0  0  0  0  0  0  0  0  0  0  0
   -6.2480    1.1040    4.4610 C   0  0  0  0  0  0  0  0  0  0  0  0
    5.9700   -3.9520   -2.6270 C   0  0  0  0  0  0  0  0  0  0  0  0
    5.2600   -3.9980   -0.2110 C   0  0  0  0  0  0  0  0  0  0  0  0
    6.3440   -4.3850   -1.2120 C   0  0  0  0  0  0  0  0  0  0  0  0
   -0.7780    0.3850    1.8770 H   0  0  0  0  0  0  0  0  0  0  0  0
    3.6890   -2.6520   -1.9120 H   0  0  0  0  0  0  0  0  0  0  0  0
    3.9820   -0.4790   -2.8810 H   0  0  0  0  0  0  0  0  0  0  0  0
    4.8450   -0.0740   -1.3770 H   0  0  0  0  0  0  0  0  0  0  0  0
   -4.7090   -0.8760    0.5450 H   0  0  0  0  0  0  0  0  0  0  0  0
   -1.9690    1.6140    2.7200 H   0  0  0  0  0  0  0  0  0  0  0  0
   -3.7140    2.0490    4.4090 H   0  0  0  0  0  0  0  0  0  0  0  0
   -6.4550   -0.4310    2.2460 H   0  0  0  0  0  0  0  0  0  0  0  0
   -0.5860   -0.6080   -1.7180 H   0  0  0  0  0  0  0  0  0  0  0  0
    1.4930    0.3660    1.9040 H   0  0  0  0  0  0  0  0  0  0  0  0
    1.5830   -0.9470   -2.8570 H   0  0  0  0  0  0  0  0  0  0  0  0
    3.6550    0.0250    0.7600 H   0  0  0  0  0  0  0  0  0  0  0  0
    6.5180   -1.8890   -2.4270 H   0  0  0  0  0  0  0  0  0  0  0  0
    5.3000   -2.2120   -3.6850 H   0  0  0  0  0  0  0  0  0  0  0  0
    4.1200   -2.3120    0.3930 H   0  0  0  0  0  0  0  0  0  0  0  0
    5.8180   -1.9600   -0.0090 H   0  0  0  0  0  0  0  0  0  0  0  0
   -5.8480    1.7650    5.2290 H   0  0  0  0  0  0  0  0  0  0  0  0
   -6.5600    0.1640    4.9170 H   0  0  0  0  0  0  0  0  0  0  0  0
   -7.1050    1.5790    3.9840 H   0  0  0  0  0  0  0  0  0  0  0  0
    6.8120   -4.1460   -3.2920 H   0  0  0  0  0  0  0  0  0  0  0  0
    5.1050   -4.5270   -2.9580 H   0  0  0  0  0  0  0  0  0  0  0  0
    4.3590   -4.5740   -0.4230 H   0  0  0  0  0  0  0  0  0  0  0  0
    5.6090   -4.2270    0.7960 H   0  0  0  0  0  0  0  0  0  0  0  0
    7.2790   -3.9020   -0.9280 H   0  0  0  0  0  0  0  0  0  0  0  0
    6.4740   -5.4670   -1.1940 H   0  0  0  0  0  0  0  0  0  0  0  0
  1  2  1  0  0  0  0
  1  4  1  0  0  0  0
  1  5  2  0  0  0  0
  2  9  1  0  0  0  0
  2 24  1  0  0  0  0
  3  6  1  0  0  0  0
  3 18  1  0  0  0  0
  3 19  1  0  0  0  0
  3 25  1  0  0  0  0
  4  7  1  0  0  0  0
  4  8  2  0  0  0  0
  6 10  1  0  0  0  0
  6 26  1  0  0  0  0
  6 27  1  0  0  0  0
  7 12  2  0  0  0  0
  7 28  1  0  0  0  0
  8 11  1  0  0  0  0
  8 29  1  0  0  0  0
  9 14  2  0  0  0  0
  9 15  1  0  0  0  0
 10 16  2  0  0  0  0
 10 17  1  0  0  0  0
 11 13  2  0  0  0  0
 11 30  1  0  0  0  0
 12 13  1  0  0  0  0
 12 31  1  0  0  0  0
 13 20  1  0  0  0  0
 14 16  1  0  0  0  0
 14 32  1  0  0  0  0
 15 17  2  0  0  0  0
 15 33  1  0  0  0  0
 16 34  1  0  0  0  0
 17 35  1  0  0  0  0
 18 21  1  0  0  0  0
 18 36  1  0  0  0  0
 18 37  1  0  0  0  0
 19 22  1  0  0  0  0
 19 38  1  0  0  0  0
 19 39  1  0  0  0  0
 20 40  1  0  0  0  0
 20 41  1  0  0  0  0
 20 42  1  0  0  0  0
 21 23  1  0  0  0  0
 21 43  1  0  0  0  0
 21 44  1  0  0  0  0
 22 23  1  0  0  0  0
 22 45  1  0  0  0  0
 22 46  1  0  0  0  0
 23 47  1  0  0  0  0
 23 48  1  0  0  0  0
M  CHG  1   3   1
M  END
>  <$CLUSTER>
848

>  <INDEX>
547458

$$$$
Chem T&I CTI-PMOS-0009149
  MOE2020           3D

 47 49  0  0  0  0  0  0  0  0999 V2000
    0.3620    0.6510   -0.0820 N   0  3  0  0  0  0  0  0  0  0  0  0
   -2.2370   -4.3840    0.5370 C   0  0  0  0  0  0  0  0  0  0  0  0
   -3.5100   -4.5340    0.0330 N   0  0  0  0  0  0  0  0  0  0  0  0
   -0.2920   -0.6470    0.0810 C   0  0  0  0  0  0  0  0  0  0  0  0
   -7.0520   -9.6400   -1.4100 N   0  3  0  0  0  0  0  0  0  0  0  0
    1.6040    0.6970   -0.1070 O   0  5  0  0  0  0  0  0  0  0  0  0
   -1.6040   -3.0590    0.3670 C   0  0  0  0  0  0  0  0  0  0  0  0
   -0.3660    1.6520   -0.1880 O   0  0  0  0  0  0  0  0  0  0  0  0
   -1.6240   -5.2940    1.0890 O   0  0  0  0  0  0  0  0  0  0  0  0
   -1.7850   -0.6130    0.1000 C   0  0  0  0  0  0  0  0  0  0  0  0
    0.4780   -1.7400    0.1970 C   0  0  0  0  0  0  0  0  0  0  0  0
   -2.3560   -1.8850    0.2520 C   0  0  0  0  0  0  0  0  0  0  0  0
   -0.2050   -2.9880    0.3480 C   0  0  0  0  0  0  0  0  0  0  0  0
   -7.2340   -8.8590   -0.1770 C   0  0  0  0  0  0  0  0  0  0  0  0
   -4.3850   -5.6040    0.0110 C   0  0  0  0  0  0  0  0  0  0  0  0
   -6.2420   -7.7090   -0.0960 C   0  0  0  0  0  0  0  0  0  0  0  0
   -4.0700   -6.8530    0.5540 C   0  0  0  0  0  0  0  0  0  0  0  0
   -5.6410   -5.4230   -0.5870 C   0  0  0  0  0  0  0  0  0  0  0  0
   -4.9970   -7.8990    0.4990 C   0  0  0  0  0  0  0  0  0  0  0  0
   -6.5640   -6.4680   -0.6400 C   0  0  0  0  0  0  0  0  0  0  0  0
   -7.7590  -10.9840   -1.3400 C   0  0  0  0  0  0  0  0  0  0  0  0
   -7.4520   -8.9220   -2.6820 C   0  0  0  0  0  0  0  0  0  0  0  0
   -7.1390   -9.7320   -3.9100 C   0  0  0  0  0  0  0  0  0  0  0  0
   -7.4500  -11.8380   -2.5650 C   0  0  0  0  0  0  0  0  0  0  0  0
   -7.8050  -11.1030   -3.8540 C   0  0  0  0  0  0  0  0  0  0  0  0
   -3.8750   -3.7010   -0.4060 H   0  0  0  0  0  0  0  0  0  0  0  0
   -6.0530   -9.7820   -1.4620 H   0  0  0  0  0  0  0  0  0  0  0  0
   -2.3630    0.2940    0.0070 H   0  0  0  0  0  0  0  0  0  0  0  0
    1.5560   -1.6810    0.1770 H   0  0  0  0  0  0  0  0  0  0  0  0
   -3.4330   -1.9620    0.2820 H   0  0  0  0  0  0  0  0  0  0  0  0
    0.3710   -3.8960    0.4500 H   0  0  0  0  0  0  0  0  0  0  0  0
   -7.0880   -9.5140    0.6820 H   0  0  0  0  0  0  0  0  0  0  0  0
   -8.2460   -8.4560   -0.1590 H   0  0  0  0  0  0  0  0  0  0  0  0
   -3.1070   -7.0110    1.0180 H   0  0  0  0  0  0  0  0  0  0  0  0
   -5.8970   -4.4630   -1.0110 H   0  0  0  0  0  0  0  0  0  0  0  0
   -4.7460   -8.8610    0.9210 H   0  0  0  0  0  0  0  0  0  0  0  0
   -7.5280   -6.3150   -1.1030 H   0  0  0  0  0  0  0  0  0  0  0  0
   -8.8350  -10.8170   -1.2860 H   0  0  0  0  0  0  0  0  0  0  0  0
   -7.4280  -11.5130   -0.4460 H   0  0  0  0  0  0  0  0  0  0  0  0
   -6.9120   -7.9770   -2.7370 H   0  0  0  0  0  0  0  0  0  0  0  0
   -8.5240   -8.7270   -2.6530 H   0  0  0  0  0  0  0  0  0  0  0  0
   -6.0590   -9.8640   -3.9820 H   0  0  0  0  0  0  0  0  0  0  0  0
   -7.4990   -9.1980   -4.7890 H   0  0  0  0  0  0  0  0  0  0  0  0
   -8.0290  -12.7600   -2.5110 H   0  0  0  0  0  0  0  0  0  0  0  0
   -6.3860  -12.0760   -2.5730 H   0  0  0  0  0  0  0  0  0  0  0  0
   -7.4700  -11.6960   -4.7050 H   0  0  0  0  0  0  0  0  0  0  0  0
   -8.8860  -10.9750   -3.9040 H   0  0  0  0  0  0  0  0  0  0  0  0
  1  4  1  0  0  0  0
  1  6  1  0  0  0  0
  1  8  2  0  0  0  0
  2  3  1  0  0  0  0
  2  7  1  0  0  0  0
  2  9  2  0  0  0  0
  3 15  1  0  0  0  0
  3 26  1  0  0  0  0
  4 10  2  0  0  0  0
  4 11  1  0  0  0  0
  5 14  1  0  0  0  0
  5 21  1  0  0  0  0
  5 22  1  0  0  0  0
  5 27  1  0  0  0  0
  7 12  2  0  0  0  0
  7 13  1  0  0  0  0
 10 12  1  0  0  0  0
 10 28  1  0  0  0  0
 11 13  2  0  0  0  0
 11 29  1  0  0  0  0
 12 30  1  0  0  0  0
 13 31  1  0  0  0  0
 14 16  1  0  0  0  0
 14 32  1  0  0  0  0
 14 33  1  0  0  0  0
 15 17  2  0  0  0  0
 15 18  1  0  0  0  0
 16 19  2  0  0  0  0
 16 20  1  0  0  0  0
 17 19  1  0  0  0  0
 17 34  1  0  0  0  0
 18 20  2  0  0  0  0
 18 35  1  0  0  0  0
 19 36  1  0  0  0  0
 20 37  1  0  0  0  0
 21 24  1  0  0  0  0
 21 38  1  0  0  0  0
 21 39  1  0  0  0  0
 22 23  1  0  0  0  0
 22 40  1  0  0  0  0
 22 41  1  0  0  0  0
 23 25  1  0  0  0  0
 23 42  1  0  0  0  0
 23 43  1  0  0  0  0
 24 25  1  0  0  0  0
 24 44  1  0  0  0  0
 24 45  1  0  0  0  0
 25 46  1  0  0  0  0
 25 47  1  0  0  0  0
M  CHG  1   1   1
M  CHG  1   5   1
M  CHG  1   6  -1
M  END
>  <$CLUSTER>
849

>  <INDEX>
547466

$$$$
Chem T&I ARAK0114249
  MOE2020           3D

 27 27  0  0  0  0  0  0  0  0999 V2000
    0.2880    0.2160    0.3050 C   0  0  0  0  0  0  0  0  0  0  0  0
   -1.1730   -1.0590   -1.2150 N   0  0  0  0  0  0  0  0  0  0  0  0
   -0.2380   -0.9740   -0.1350 N   0  0  0  0  0  0  0  0  0  0  0  0
   -1.5170   -2.1740   -1.6450 C   0  0  0  0  0  0  0  0  0  0  0  0
   -0.0330    1.7470   -0.2960 S   0  0  0  0  0  0  0  0  0  0  0  0
   -2.4660   -2.1810   -2.8210 C   0  0  0  0  0  0  0  0  0  0  0  0
   -2.7270   -1.0070   -3.5230 C   0  0  0  0  0  0  0  0  0  0  0  0
   -3.1250   -3.3730   -3.2360 C   0  0  0  0  0  0  0  0  0  0  0  0
    1.1560    0.0700    1.3400 N   0  0  0  0  0  0  0  0  0  0  0  0
   -4.0030   -3.3520   -4.3240 C   0  0  0  0  0  0  0  0  0  0  0  0
   -3.6050   -0.9880   -4.6100 C   0  0  0  0  0  0  0  0  0  0  0  0
   -4.2410   -2.1620   -5.0110 C   0  0  0  0  0  0  0  0  0  0  0  0
   -1.0660   -3.5190   -1.1180 C   0  0  0  0  0  0  0  0  0  0  0  0
   -5.1770   -2.1430   -6.1750 C   0  0  0  0  0  0  0  0  0  0  0  0
    0.0480   -1.8270    0.3240 H   0  0  0  0  0  0  0  0  0  0  0  0
   -2.2400   -0.0910   -3.2210 H   0  0  0  0  0  0  0  0  0  0  0  0
   -2.9460   -4.2980   -2.7080 H   0  0  0  0  0  0  0  0  0  0  0  0
    1.6030    0.8810    1.7420 H   0  0  0  0  0  0  0  0  0  0  0  0
    1.3540   -0.8500    1.7070 H   0  0  0  0  0  0  0  0  0  0  0  0
   -4.4980   -4.2600   -4.6330 H   0  0  0  0  0  0  0  0  0  0  0  0
   -3.7910   -0.0650   -5.1390 H   0  0  0  0  0  0  0  0  0  0  0  0
   -1.5370   -4.3130   -1.6970 H   0  0  0  0  0  0  0  0  0  0  0  0
   -1.3530   -3.6140   -0.0710 H   0  0  0  0  0  0  0  0  0  0  0  0
    0.0170   -3.5990   -1.2060 H   0  0  0  0  0  0  0  0  0  0  0  0
   -5.5750   -3.1450   -6.3380 H   0  0  0  0  0  0  0  0  0  0  0  0
   -4.6420   -1.8150   -7.0660 H   0  0  0  0  0  0  0  0  0  0  0  0
   -5.9970   -1.4550   -5.9700 H   0  0  0  0  0  0  0  0  0  0  0  0
  1  3  1  0  0  0  0
  1  5  2  0  0  0  0
  1  9  1  0  0  0  0
  2  3  1  0  0  0  0
  2  4  2  0  0  0  0
  3 15  1  0  0  0  0
  4  6  1  0  0  0  0
  4 13  1  0  0  0  0
  6  7  1  0  0  0  0
  6  8  2  0  0  0  0
  7 11  2  0  0  0  0
  7 16  1  0  0  0  0
  8 10  1  0  0  0  0
  8 17  1  0  0  0  0
  9 18  1  0  0  0  0
  9 19  1  0  0  0  0
 10 12  2  0  0  0  0
 10 20  1  0  0  0  0
 11 12  1  0  0  0  0
 11 21  1  0  0  0  0
 12 14  1  0  0  0  0
 13 22  1  0  0  0  0
 13 23  1  0  0  0  0
 13 24  1  0  0  0  0
 14 25  1  0  0  0  0
 14 26  1  0  0  0  0
 14 27  1  0  0  0  0
M  END
>  <$CLUSTER>
850

>  <INDEX>
535707

$$$$
Chemdiv 1400-7881
  MOE2020           3D

 45 47  0  0  1  0  0  0  0  0999 V2000
    0.2730    1.1610   -0.5150 C   0  0  0  0  0  0  0  0  0  0  0  0
    0.8520   -0.1070   -0.5420 C   0  0  0  0  0  0  0  0  0  0  0  0
    0.1060   -1.0240    0.2990 C   0  0  0  0  0  0  0  0  0  0  0  0
   -0.9460   -0.3920    0.9340 C   0  0  0  0  0  0  0  0  0  0  0  0
   -1.0820    1.2400    0.5070 S   0  0  0  0  0  0  0  0  0  0  0  0
    0.7090    2.2860   -1.2080 N   0  0  0  0  0  0  0  0  0  0  0  0
    0.1450    3.5570   -1.1870 C   0  0  0  0  0  0  0  0  0  0  0  0
    2.0480   -0.4080   -1.3340 C   0  0  0  0  0  0  0  0  0  0  0  0
    0.3820   -2.4840    0.5360 C   0  0  0  0  0  0  0  0  0  0  0  0
   -1.9170   -1.0370    1.8750 C   0  0  0  0  0  0  0  0  0  0  0  0
   -0.8380    3.9500   -0.5670 O   0  0  0  0  0  0  0  0  0  0  0  0
    0.9170    4.4990   -2.0770 C   0  0  0  0  0  0  0  0  0  0  0  0
    2.5290    0.3440   -2.1730 O   0  0  0  0  0  0  0  0  0  0  0  0
    2.6140   -1.6090   -1.0480 O   0  0  0  0  0  0  0  0  0  0  0  0
   -0.7930   -3.2080    1.2140 C   0  0  0  0  0  0  0  0  0  0  0  0
   -1.3710   -2.3870    2.3820 C   0  0  3  0  0  0  0  0  0  0  0  0
    0.1920    5.6310   -2.5680 C   0  0  0  0  0  0  0  0  0  0  0  0
    2.2540    4.3810   -2.3800 C   0  0  0  0  0  0  0  0  0  0  0  0
    3.7690   -2.0130   -1.7350 C   0  0  0  0  0  0  0  0  0  0  0  0
   -2.4640   -3.1680    3.1080 C   0  0  0  0  0  0  0  0  0  0  0  0
    4.1890   -3.3830   -1.2410 C   0  0  0  0  0  0  0  0  0  0  0  0
    2.8920    5.3230   -3.1910 C   0  0  0  0  0  0  0  0  0  0  0  0
    0.8350    6.5690   -3.3780 C   0  0  0  0  0  0  0  0  0  0  0  0
    2.1840    6.4130   -3.6910 C   0  0  0  0  0  0  0  0  0  0  0  0
    1.5250    2.1660   -1.7910 H   0  0  0  0  0  0  0  0  0  0  0  0
    1.2610   -2.5740    1.1740 H   0  0  0  0  0  0  0  0  0  0  0  0
    0.5790   -2.9620   -0.4240 H   0  0  0  0  0  0  0  0  0  0  0  0
   -2.8600   -1.2050    1.3560 H   0  0  0  0  0  0  0  0  0  0  0  0
   -2.0830   -0.3760    2.7260 H   0  0  0  0  0  0  0  0  0  0  0  0
   -0.4440   -4.1670    1.5960 H   0  0  0  0  0  0  0  0  0  0  0  0
   -1.5780   -3.3740    0.4770 H   0  0  0  0  0  0  0  0  0  0  0  0
   -0.5660   -2.1910    3.0910 H   0  0  0  0  0  0  0  0  0  0  0  0
   -0.8500    5.7590   -2.3130 H   0  0  0  0  0  0  0  0  0  0  0  0
    2.8180    3.5490   -1.9850 H   0  0  0  0  0  0  0  0  0  0  0  0
    4.5710   -1.2980   -1.5520 H   0  0  0  0  0  0  0  0  0  0  0  0
    3.5600   -2.0590   -2.8040 H   0  0  0  0  0  0  0  0  0  0  0  0
   -3.2820   -3.3760    2.4180 H   0  0  0  0  0  0  0  0  0  0  0  0
   -2.8370   -2.5780    3.9450 H   0  0  0  0  0  0  0  0  0  0  0  0
   -2.0540   -4.1070    3.4790 H   0  0  0  0  0  0  0  0  0  0  0  0
    4.3980   -3.3360   -0.1720 H   0  0  0  0  0  0  0  0  0  0  0  0
    5.0860   -3.7020   -1.7720 H   0  0  0  0  0  0  0  0  0  0  0  0
    3.3860   -4.0970   -1.4230 H   0  0  0  0  0  0  0  0  0  0  0  0
    3.9380    5.2050   -3.4310 H   0  0  0  0  0  0  0  0  0  0  0  0
    0.2860    7.4160   -3.7620 H   0  0  0  0  0  0  0  0  0  0  0  0
    2.6800    7.1370   -4.3210 H   0  0  0  0  0  0  0  0  0  0  0  0
  1  2  2  0  0  0  0
  1  5  1  0  0  0  0
  1  6  1  0  0  0  0
  2  3  1  0  0  0  0
  2  8  1  0  0  0  0
  3  4  2  0  0  0  0
  3  9  1  0  0  0  0
  4  5  1  0  0  0  0
  4 10  1  0  0  0  0
  6  7  1  0  0  0  0
  6 25  1  0  0  0  0
  7 11  2  0  0  0  0
  7 12  1  0  0  0  0
  8 13  2  0  0  0  0
  8 14  1  0  0  0  0
  9 15  1  0  0  0  0
  9 26  1  0  0  0  0
  9 27  1  0  0  0  0
 10 16  1  0  0  0  0
 10 28  1  0  0  0  0
 10 29  1  0  0  0  0
 12 17  1  0  0  0  0
 12 18  2  0  0  0  0
 14 19  1  0  0  0  0
 15 16  1  0  0  0  0
 15 30  1  0  0  0  0
 15 31  1  0  0  0  0
 16 20  1  0  0  0  0
 16 32  1  0  0  0  0
 17 23  2  0  0  0  0
 17 33  1  0  0  0  0
 18 22  1  0  0  0  0
 18 34  1  0  0  0  0
 19 21  1  0  0  0  0
 19 35  1  0  0  0  0
 19 36  1  0  0  0  0
 20 37  1  0  0  0  0
 20 38  1  0  0  0  0
 20 39  1  0  0  0  0
 21 40  1  0  0  0  0
 21 41  1  0  0  0  0
 21 42  1  0  0  0  0
 22 24  2  0  0  0  0
 22 43  1  0  0  0  0
 23 24  1  0  0  0  0
 23 44  1  0  0  0  0
 24 45  1  0  0  0  0
M  END
>  <$CLUSTER>
851

>  <INDEX>
14032

$$$$
Menai H4242
  MOE2020           3D

 39 41  0  0  0  0  0  0  0  0999 V2000
    0.1610    0.9230    0.8360 N   0  0  0  0  0  0  0  0  0  0  0  0
   -0.0750   -0.2750    0.1190 C   0  0  0  0  0  0  0  0  0  0  0  0
   -0.7990    1.6070    1.5690 C   0  0  0  0  0  0  0  0  0  0  0  0
   -0.2260    2.8440    2.2110 C   0  0  0  0  0  0  0  0  0  0  0  0
   -1.2350    3.6370    3.0260 C   0  0  0  0  0  0  0  0  0  0  0  0
   -2.1390    4.8800    2.2880 S   0  0  0  0  0  0  0  0  0  0  0  0
   -1.3120   -0.8300    0.1200 N   0  0  0  0  0  0  0  0  0  0  0  0
    1.0050   -0.8430   -0.5720 C   0  0  0  0  0  0  0  0  0  0  0  0
    2.2040   -0.1850   -0.4940 O   0  0  0  0  0  0  0  0  0  0  0  0
   -2.9890    5.1880    3.7410 C   0  0  0  0  0  0  0  0  0  0  0  0
   -1.9790    1.3010    1.7130 O   0  0  0  0  0  0  0  0  0  0  0  0
   -1.5790    3.4420    4.3380 C   0  0  0  0  0  0  0  0  0  0  0  0
   -2.5940    4.3490    4.7580 C   0  0  0  0  0  0  0  0  0  0  0  0
    3.3030   -0.7560   -1.1940 C   0  0  0  0  0  0  0  0  0  0  0  0
    4.5390    0.0560   -1.0270 C   0  0  0  0  0  0  0  0  0  0  0  0
   -1.4880   -1.9720   -0.5780 C   0  0  0  0  0  0  0  0  0  0  0  0
    0.7800   -2.0240   -1.2820 C   0  0  0  0  0  0  0  0  0  0  0  0
    5.3910   -0.1690    0.0610 C   0  0  0  0  0  0  0  0  0  0  0  0
    4.8120    1.1160   -1.9000 C   0  0  0  0  0  0  0  0  0  0  0  0
   -0.4850   -2.6020   -1.2880 C   0  0  0  0  0  0  0  0  0  0  0  0
    5.9470    1.9080   -1.7150 C   0  0  0  0  0  0  0  0  0  0  0  0
    6.5260    0.6230    0.2440 C   0  0  0  0  0  0  0  0  0  0  0  0
    6.8040    1.6610   -0.6440 C   0  0  0  0  0  0  0  0  0  0  0  0
    1.0950    1.3070    0.8120 H   0  0  0  0  0  0  0  0  0  0  0  0
    0.1640    3.4900    1.4240 H   0  0  0  0  0  0  0  0  0  0  0  0
    0.5880    2.5430    2.8710 H   0  0  0  0  0  0  0  0  0  0  0  0
   -3.7460    5.9510    3.8470 H   0  0  0  0  0  0  0  0  0  0  0  0
   -1.1350    2.6920    4.9760 H   0  0  0  0  0  0  0  0  0  0  0  0
   -3.0050    4.3750    5.7560 H   0  0  0  0  0  0  0  0  0  0  0  0
    3.0570   -0.8120   -2.2540 H   0  0  0  0  0  0  0  0  0  0  0  0
    3.4840   -1.7600   -0.8100 H   0  0  0  0  0  0  0  0  0  0  0  0
   -2.4710   -2.4190   -0.5810 H   0  0  0  0  0  0  0  0  0  0  0  0
    1.5880   -2.4890   -1.8270 H   0  0  0  0  0  0  0  0  0  0  0  0
    5.1690   -0.9600    0.7630 H   0  0  0  0  0  0  0  0  0  0  0  0
    4.1410    1.3220   -2.7210 H   0  0  0  0  0  0  0  0  0  0  0  0
   -0.6770   -3.5150   -1.8310 H   0  0  0  0  0  0  0  0  0  0  0  0
    6.1610    2.7130   -2.4030 H   0  0  0  0  0  0  0  0  0  0  0  0
    7.1890    0.4310    1.0740 H   0  0  0  0  0  0  0  0  0  0  0  0
    7.6820    2.2730   -0.5020 H   0  0  0  0  0  0  0  0  0  0  0  0
  1  2  1  0  0  0  0
  1  3  1  0  0  0  0
  1 24  1  0  0  0  0
  2  7  2  0  0  0  0
  2  8  1  0  0  0  0
  3  4  1  0  0  0  0
  3 11  2  0  0  0  0
  4  5  1  0  0  0  0
  4 25  1  0  0  0  0
  4 26  1  0  0  0  0
  5  6  1  0  0  0  0
  5 12  2  0  0  0  0
  6 10  1  0  0  0  0
  7 16  1  0  0  0  0
  8  9  1  0  0  0  0
  8 17  2  0  0  0  0
  9 14  1  0  0  0  0
 10 13  2  0  0  0  0
 10 27  1  0  0  0  0
 12 13  1  0  0  0  0
 12 28  1  0  0  0  0
 13 29  1  0  0  0  0
 14 15  1  0  0  0  0
 14 30  1  0  0  0  0
 14 31  1  0  0  0  0
 15 18  1  0  0  0  0
 15 19  2  0  0  0  0
 16 20  2  0  0  0  0
 16 32  1  0  0  0  0
 17 20  1  0  0  0  0
 17 33  1  0  0  0  0
 18 22  2  0  0  0  0
 18 34  1  0  0  0  0
 19 21  1  0  0  0  0
 19 35  1  0  0  0  0
 20 36  1  0  0  0  0
 21 23  2  0  0  0  0
 21 37  1  0  0  0  0
 22 23  1  0  0  0  0
 22 38  1  0  0  0  0
 23 39  1  0  0  0  0
M  END
>  <$CLUSTER>
852

>  <INDEX>
550435

$$$$
Chembridge 5379981
  MOE2020           3D

 26 27  0  0  0  0  0  0  0  0999 V2000
   -0.0260    0.2870   -0.1620 C   0  0  0  0  0  0  0  0  0  0  0  0
   -0.6840   -0.9060    0.2290 C   0  0  0  0  0  0  0  0  0  0  0  0
   -0.9300   -1.6480   -0.8530 N   0  0  0  0  0  0  0  0  0  0  0  0
    0.1330    0.2780   -1.4910 N   0  0  0  0  0  0  0  0  0  0  0  0
    0.4400    1.3950    0.6580 C   0  0  0  0  0  0  0  0  0  0  0  0
   -0.4260   -0.9180   -1.9190 O   0  0  0  0  0  0  0  0  0  0  0  0
    1.5690    3.5800    0.5710 N   0  0  0  0  0  0  0  0  0  0  0  0
    1.0480    2.4150   -0.0420 N   0  0  0  0  0  0  0  0  0  0  0  0
    0.3030    1.4200    1.8780 O   0  0  0  0  0  0  0  0  0  0  0  0
   -1.0020   -1.2220    1.5010 N   0  0  0  0  0  0  0  0  0  0  0  0
    1.8890    4.5150   -0.1860 C   0  0  0  0  0  0  0  0  0  0  0  0
    2.5820    5.9720    1.7530 C   0  0  0  0  0  0  0  0  0  0  0  0
    2.4260    5.7880    0.3950 C   0  0  0  0  0  0  0  0  0  0  0  0
    3.0870    7.1770    2.2470 C   0  0  0  0  0  0  0  0  0  0  0  0
    3.3010    7.4350    4.0660 Br  0  0  0  0  0  0  0  0  0  0  0  0
    3.2790    8.0250   -0.0110 C   0  0  0  0  0  0  0  0  0  0  0  0
    3.4340    8.2030    1.3650 C   0  0  0  0  0  0  0  0  0  0  0  0
    2.7750    6.8210   -0.5080 C   0  0  0  0  0  0  0  0  0  0  0  0
    1.1260    2.3270   -1.0450 H   0  0  0  0  0  0  0  0  0  0  0  0
   -1.4720   -2.0930    1.7030 H   0  0  0  0  0  0  0  0  0  0  0  0
   -0.7700   -0.5880    2.2520 H   0  0  0  0  0  0  0  0  0  0  0  0
    1.7800    4.4090   -1.2550 H   0  0  0  0  0  0  0  0  0  0  0  0
    2.3130    5.1810    2.4370 H   0  0  0  0  0  0  0  0  0  0  0  0
    3.5490    8.8190   -0.6920 H   0  0  0  0  0  0  0  0  0  0  0  0
    3.8230    9.1350    1.7480 H   0  0  0  0  0  0  0  0  0  0  0  0
    2.6530    6.6790   -1.5720 H   0  0  0  0  0  0  0  0  0  0  0  0
  1  2  1  0  0  0  0
  1  4  2  0  0  0  0
  1  5  1  0  0  0  0
  2  3  2  0  0  0  0
  2 10  1  0  0  0  0
  3  6  1  0  0  0  0
  4  6  1  0  0  0  0
  5  8  1  0  0  0  0
  5  9  2  0  0  0  0
  7  8  1  0  0  0  0
  7 11  2  0  0  0  0
  8 19  1  0  0  0  0
 10 20  1  0  0  0  0
 10 21  1  0  0  0  0
 11 13  1  0  0  0  0
 11 22  1  0  0  0  0
 12 13  1  0  0  0  0
 12 14  2  0  0  0  0
 12 23  1  0  0  0  0
 13 18  2  0  0  0  0
 14 15  1  0  0  0  0
 14 17  1  0  0  0  0
 16 17  2  0  0  0  0
 16 18  1  0  0  0  0
 16 24  1  0  0  0  0
 17 25  1  0  0  0  0
 18 26  1  0  0  0  0
M  END
>  <$CLUSTER>
853

>  <INDEX>
43644

$$$$
Cerep CER0224616
  MOE2020           3D

 46 48  0  0  0  0  0  0  0  0999 V2000
    0.1320    1.5100   -0.2200 C   0  0  0  0  0  0  0  0  0  0  0  0
   -0.0040    0.0820    0.0700 C   0  0  0  0  0  0  0  0  0  0  0  0
   -5.9540    4.0530   -0.5670 C   0  0  0  0  0  0  0  0  0  0  0  0
   -0.9950    2.1290   -0.7150 N   0  0  0  0  0  0  0  0  0  0  0  0
   -6.1170    4.3990   -1.8780 N   0  0  0  0  0  0  0  0  0  0  0  0
   -3.4740    3.7040   -0.6310 N   0  3  0  0  0  0  0  0  0  0  0  0
   -4.6040    4.4410    0.0160 C   0  0  0  0  0  0  0  0  0  0  0  0
    0.6540   -2.3060    0.8320 S   0  0  0  0  0  0  0  0  0  0  0  0
    1.0500   -0.6630    0.5720 C   0  0  0  0  0  0  0  0  0  0  0  0
   -1.1620   -0.7530   -0.0950 C   0  0  0  0  0  0  0  0  0  0  0  0
   -6.8270    3.4520    0.0570 O   0  0  0  0  0  0  0  0  0  0  0  0
    1.1830    2.1210   -0.0350 O   0  0  0  0  0  0  0  0  0  0  0  0
   -0.9820    3.5730   -1.0470 C   0  0  0  0  0  0  0  0  0  0  0  0
   -2.2980    1.4880   -0.9710 C   0  0  0  0  0  0  0  0  0  0  0  0
   -0.9410   -2.0600    0.2780 C   0  0  0  0  0  0  0  0  0  0  0  0
   -7.3850    4.2300   -2.6260 C   0  0  0  0  0  0  0  0  0  0  0  0
   -3.4650    2.2290   -0.2650 C   0  0  0  0  0  0  0  0  0  0  0  0
   -2.1280    4.3430   -0.3410 C   0  0  0  0  0  0  0  0  0  0  0  0
   -5.0150    4.9630   -2.7390 C   0  0  0  0  0  0  0  0  0  0  0  0
   -7.4320    4.1130   -4.0280 C   0  0  0  0  0  0  0  0  0  0  0  0
   -8.6090    4.1850   -1.9360 C   0  0  0  0  0  0  0  0  0  0  0  0
   -8.6430    3.9370   -4.7060 C   0  0  0  0  0  0  0  0  0  0  0  0
   -9.8210    4.0100   -2.6160 C   0  0  0  0  0  0  0  0  0  0  0  0
   -9.8370    3.8820   -4.0000 C   0  0  0  0  0  0  0  0  0  0  0  0
   -3.6320    3.7700   -1.6260 H   0  0  0  0  0  0  0  0  0  0  0  0
   -4.6050    4.2160    1.0820 H   0  0  0  0  0  0  0  0  0  0  0  0
   -4.4540    5.5110   -0.1290 H   0  0  0  0  0  0  0  0  0  0  0  0
    2.0250   -0.2480    0.7790 H   0  0  0  0  0  0  0  0  0  0  0  0
   -2.1080   -0.3930   -0.4720 H   0  0  0  0  0  0  0  0  0  0  0  0
   -1.0940    3.6870   -2.1250 H   0  0  0  0  0  0  0  0  0  0  0  0
   -0.0280    3.9970   -0.7340 H   0  0  0  0  0  0  0  0  0  0  0  0
   -2.2620    0.4620   -0.6060 H   0  0  0  0  0  0  0  0  0  0  0  0
   -2.4830    1.4850   -2.0450 H   0  0  0  0  0  0  0  0  0  0  0  0
   -1.6890   -2.8370    0.2260 H   0  0  0  0  0  0  0  0  0  0  0  0
   -4.4100    1.7800   -0.5710 H   0  0  0  0  0  0  0  0  0  0  0  0
   -3.3490    2.1300    0.8140 H   0  0  0  0  0  0  0  0  0  0  0  0
   -1.9540    4.3330    0.7350 H   0  0  0  0  0  0  0  0  0  0  0  0
   -2.1380    5.3730   -0.6980 H   0  0  0  0  0  0  0  0  0  0  0  0
   -4.1070    5.0680   -2.1450 H   0  0  0  0  0  0  0  0  0  0  0  0
   -5.3150    5.9390   -3.1200 H   0  0  0  0  0  0  0  0  0  0  0  0
   -4.8260    4.2900   -3.5750 H   0  0  0  0  0  0  0  0  0  0  0  0
   -6.5130    4.1600   -4.5930 H   0  0  0  0  0  0  0  0  0  0  0  0
   -8.6150    4.2870   -0.8610 H   0  0  0  0  0  0  0  0  0  0  0  0
   -8.6490    3.8440   -5.7820 H   0  0  0  0  0  0  0  0  0  0  0  0
  -10.7480    3.9740   -2.0620 H   0  0  0  0  0  0  0  0  0  0  0  0
  -10.7720    3.7410   -4.5220 H   0  0  0  0  0  0  0  0  0  0  0  0
  1  2  1  0  0  0  0
  1  4  1  0  0  0  0
  1 12  2  0  0  0  0
  2  9  2  0  0  0  0
  2 10  1  0  0  0  0
  3  5  1  0  0  0  0
  3  7  1  0  0  0  0
  3 11  2  0  0  0  0
  4 13  1  0  0  0  0
  4 14  1  0  0  0  0
  5 16  1  0  0  0  0
  5 19  1  0  0  0  0
  6  7  1  0  0  0  0
  6 17  1  0  0  0  0
  6 18  1  0  0  0  0
  6 25  1  0  0  0  0
  7 26  1  0  0  0  0
  7 27  1  0  0  0  0
  8  9  1  0  0  0  0
  8 15  1  0  0  0  0
  9 28  1  0  0  0  0
 10 15  2  0  0  0  0
 10 29  1  0  0  0  0
 13 18  1  0  0  0  0
 13 30  1  0  0  0  0
 13 31  1  0  0  0  0
 14 17  1  0  0  0  0
 14 32  1  0  0  0  0
 14 33  1  0  0  0  0
 15 34  1  0  0  0  0
 16 20  2  0  0  0  0
 16 21  1  0  0  0  0
 17 35  1  0  0  0  0
 17 36  1  0  0  0  0
 18 37  1  0  0  0  0
 18 38  1  0  0  0  0
 19 39  1  0  0  0  0
 19 40  1  0  0  0  0
 19 41  1  0  0  0  0
 20 22  1  0  0  0  0
 20 42  1  0  0  0  0
 21 23  2  0  0  0  0
 21 43  1  0  0  0  0
 22 24  2  0  0  0  0
 22 44  1  0  0  0  0
 23 24  1  0  0  0  0
 23 45  1  0  0  0  0
 24 46  1  0  0  0  0
M  CHG  1   6   1
M  END
>  <$CLUSTER>
854

>  <INDEX>
193335

$$$$
Tripos 1554-03108
  MOE2020           3D

 27 28  0  0  0  0  0  0  0  0999 V2000
    1.6320    0.5190    0.4070 S   0  0  0  0  0  0  0  0  0  0  0  0
   -0.0060    0.1740   -0.0970 C   0  0  0  0  0  0  0  0  0  0  0  0
   -0.5720   -1.0240    0.3150 C   0  0  0  0  0  0  0  0  0  0  0  0
   -1.8740   -1.3560   -0.0540 C   0  0  0  0  0  0  0  0  0  0  0  0
    1.9720    2.0080   -0.2610 N   0  0  0  0  0  0  0  0  0  0  0  0
    2.3690    2.2830   -4.4830 C   0  0  0  0  0  0  0  0  0  0  0  0
    1.2400    2.8200   -3.8660 C   0  0  0  0  0  0  0  0  0  0  0  0
    3.3630    1.6760   -3.7150 C   0  0  0  0  0  0  0  0  0  0  0  0
    2.0970    2.1410   -1.7100 C   0  0  0  0  0  0  0  0  0  0  0  0
   -0.7430    1.0600   -0.8890 C   0  0  0  0  0  0  0  0  0  0  0  0
    1.1020    2.7500   -2.4780 C   0  0  0  0  0  0  0  0  0  0  0  0
    3.2290    1.6030   -2.3280 C   0  0  0  0  0  0  0  0  0  0  0  0
    1.6300    0.6950    1.8480 O   0  0  0  0  0  0  0  0  0  0  0  0
    2.5110   -0.4410   -0.2380 O   0  0  0  0  0  0  0  0  0  0  0  0
   -2.6140   -0.4760   -0.8440 C   0  0  0  0  0  0  0  0  0  0  0  0
   -2.0490    0.7310   -1.2610 C   0  0  0  0  0  0  0  0  0  0  0  0
    0.1150   -1.8900    1.0750 F   0  0  0  0  0  0  0  0  0  0  0  0
   -2.4830   -2.4850    0.3020 F   0  0  0  0  0  0  0  0  0  0  0  0
    2.4220    2.3910   -5.8120 F   0  0  0  0  0  0  0  0  0  0  0  0
    0.3400    3.3830   -4.6720 F   0  0  0  0  0  0  0  0  0  0  0  0
    4.4720    1.1410   -4.2280 F   0  0  0  0  0  0  0  0  0  0  0  0
   -3.8510   -0.8620   -1.1560 F   0  0  0  0  0  0  0  0  0  0  0  0
    2.0910    2.8150    0.3340 H   0  0  0  0  0  0  0  0  0  0  0  0
   -0.3050    1.9930   -1.2110 H   0  0  0  0  0  0  0  0  0  0  0  0
    0.2280    3.1660   -1.9990 H   0  0  0  0  0  0  0  0  0  0  0  0
    3.9980    1.1320   -1.7340 H   0  0  0  0  0  0  0  0  0  0  0  0
   -2.6230    1.4120   -1.8720 H   0  0  0  0  0  0  0  0  0  0  0  0
  1  2  1  0  0  0  0
  1  5  1  0  0  0  0
  1 13  2  0  0  0  0
  1 14  2  0  0  0  0
  2  3  2  0  0  0  0
  2 10  1  0  0  0  0
  3  4  1  0  0  0  0
  3 17  1  0  0  0  0
  4 15  2  0  0  0  0
  4 18  1  0  0  0  0
  5  9  1  0  0  0  0
  5 23  1  0  0  0  0
  6  7  2  0  0  0  0
  6  8  1  0  0  0  0
  6 19  1  0  0  0  0
  7 11  1  0  0  0  0
  7 20  1  0  0  0  0
  8 12  2  0  0  0  0
  8 21  1  0  0  0  0
  9 11  2  0  0  0  0
  9 12  1  0  0  0  0
 10 16  2  0  0  0  0
 10 24  1  0  0  0  0
 11 25  1  0  0  0  0
 12 26  1  0  0  0  0
 15 16  1  0  0  0  0
 15 22  1  0  0  0  0
 16 27  1  0  0  0  0
M  END
>  <$CLUSTER>
855

>  <INDEX>
466504

$$$$
Tripos 1528-10289
  MOE2020           3D

 31 32  0  0  0  0  0  0  0  0999 V2000
    1.6080   -0.9500   -0.0020 S   0  0  0  0  0  0  0  0  0  0  0  0
    0.3370    0.2610   -0.1700 C   0  0  0  0  0  0  0  0  0  0  0  0
    2.9850   -0.2030   -0.5790 N   0  0  0  0  0  0  0  0  0  0  0  0
    3.2250    0.6400   -4.7400 C   0  0  0  0  0  0  0  0  0  0  0  0
    3.0320    1.6890   -3.8430 C   0  0  0  0  0  0  0  0  0  0  0  0
    3.3530   -0.6670   -4.2710 C   0  0  0  0  0  0  0  0  0  0  0  0
    3.0910    0.1210   -2.0020 C   0  0  0  0  0  0  0  0  0  0  0  0
    0.6360    1.5240   -0.7010 C   0  0  0  0  0  0  0  0  0  0  0  0
    2.9630    1.4320   -2.4720 C   0  0  0  0  0  0  0  0  0  0  0  0
    3.2850   -0.9300   -2.9030 C   0  0  0  0  0  0  0  0  0  0  0  0
    1.8330   -1.1830    1.4130 O   0  0  0  0  0  0  0  0  0  0  0  0
    1.3220   -2.0410   -0.9170 O   0  0  0  0  0  0  0  0  0  0  0  0
   -0.9720   -0.0500    0.2320 C   0  0  0  0  0  0  0  0  0  0  0  0
   -1.9730    0.9280    0.0900 C   0  0  0  0  0  0  0  0  0  0  0  0
   -0.3670    2.4820   -0.8340 C   0  0  0  0  0  0  0  0  0  0  0  0
    3.2770    0.9720   -6.0320 F   0  0  0  0  0  0  0  0  0  0  0  0
    2.9210    2.9070   -4.3740 F   0  0  0  0  0  0  0  0  0  0  0  0
    3.5420   -1.7240   -5.0640 F   0  0  0  0  0  0  0  0  0  0  0  0
   -1.6680    2.1840   -0.4390 C   0  0  0  0  0  0  0  0  0  0  0  0
   -0.0150    4.0190   -1.4770 Cl  0  0  0  0  0  0  0  0  0  0  0  0
   -1.2010   -1.3200    0.7500 O   0  0  0  0  0  0  0  0  0  0  0  0
   -2.5390   -1.6310    1.1570 C   0  0  0  0  0  0  0  0  0  0  0  0
    3.7410    0.0240    0.0510 H   0  0  0  0  0  0  0  0  0  0  0  0
    1.6460    1.7550   -1.0070 H   0  0  0  0  0  0  0  0  0  0  0  0
    2.8110    2.2440   -1.7760 H   0  0  0  0  0  0  0  0  0  0  0  0
    3.3820   -1.9430   -2.5410 H   0  0  0  0  0  0  0  0  0  0  0  0
   -2.9860    0.7060    0.3930 H   0  0  0  0  0  0  0  0  0  0  0  0
   -2.4450    2.9270   -0.5420 H   0  0  0  0  0  0  0  0  0  0  0  0
   -2.5740   -2.6510    1.5400 H   0  0  0  0  0  0  0  0  0  0  0  0
   -3.2090   -1.5410    0.3020 H   0  0  0  0  0  0  0  0  0  0  0  0
   -2.8520   -0.9380    1.9380 H   0  0  0  0  0  0  0  0  0  0  0  0
  1  2  1  0  0  0  0
  1  3  1  0  0  0  0
  1 11  2  0  0  0  0
  1 12  2  0  0  0  0
  2  8  1  0  0  0  0
  2 13  2  0  0  0  0
  3  7  1  0  0  0  0
  3 23  1  0  0  0  0
  4  5  2  0  0  0  0
  4  6  1  0  0  0  0
  4 16  1  0  0  0  0
  5  9  1  0  0  0  0
  5 17  1  0  0  0  0
  6 10  2  0  0  0  0
  6 18  1  0  0  0  0
  7  9  2  0  0  0  0
  7 10  1  0  0  0  0
  8 15  2  0  0  0  0
  8 24  1  0  0  0  0
  9 25  1  0  0  0  0
 10 26  1  0  0  0  0
 13 14  1  0  0  0  0
 13 21  1  0  0  0  0
 14 19  2  0  0  0  0
 14 27  1  0  0  0  0
 15 19  1  0  0  0  0
 15 20  1  0  0  0  0
 19 28  1  0  0  0  0
 21 22  1  0  0  0  0
 22 29  1  0  0  0  0
 22 30  1  0  0  0  0
 22 31  1  0  0  0  0
M  END
>  <$CLUSTER>
856

>  <INDEX>
452391

$$$$
Chembridge 6576510
  MOE2020           3D

 41 43  0  0  0  0  0  0  0  0999 V2000
    0.0980    0.4240    1.3800 N   0  0  0  0  0  0  0  0  0  0  0  0
   -0.0380   -0.2390    0.1300 C   0  0  0  0  0  0  0  0  0  0  0  0
    0.9880    1.4280    1.7270 C   0  0  0  0  0  0  0  0  0  0  0  0
    1.0190   -0.4490   -0.7860 C   0  0  0  0  0  0  0  0  0  0  0  0
   -1.3290   -0.7470   -0.1800 C   0  0  0  0  0  0  0  0  0  0  0  0
    0.9480    1.7200    3.2060 C   0  0  0  0  0  0  0  0  0  0  0  0
    2.1240    2.3250    3.7460 C   0  0  0  0  0  0  0  0  0  0  0  0
   -1.5600   -1.3720   -1.4160 C   0  0  0  0  0  0  0  0  0  0  0  0
    0.7390   -1.0540   -2.0280 C   0  0  0  0  0  0  0  0  0  0  0  0
    2.1790    2.6320    5.1070 C   0  0  0  0  0  0  0  0  0  0  0  0
    1.6910    2.0960    0.9750 O   0  0  0  0  0  0  0  0  0  0  0  0
   -0.5360   -1.5080   -2.3420 C   0  0  0  0  0  0  0  0  0  0  0  0
   -0.1230    1.4770    4.0300 C   0  0  0  0  0  0  0  0  0  0  0  0
    1.0880    2.3620    5.9290 C   0  0  0  0  0  0  0  0  0  0  0  0
   -0.0620    1.7870    5.3910 C   0  0  0  0  0  0  0  0  0  0  0  0
    2.4670   -0.1400   -0.5200 C   0  0  0  0  0  0  0  0  0  0  0  0
   -2.4950   -0.6100    0.7670 C   0  0  0  0  0  0  0  0  0  0  0  0
    3.3430    3.2180    5.6500 C   0  0  0  0  0  0  0  0  0  0  0  0
   -0.7990   -2.1390   -3.6700 C   0  0  0  0  0  0  0  0  0  0  0  0
    1.1570    2.6860    7.3030 C   0  0  0  0  0  0  0  0  0  0  0  0
    3.4010    3.5310    7.0070 C   0  0  0  0  0  0  0  0  0  0  0  0
    2.3100    3.2660    7.8320 C   0  0  0  0  0  0  0  0  0  0  0  0
   -0.5350    0.1250    2.1080 H   0  0  0  0  0  0  0  0  0  0  0  0
    2.9660    2.5440    3.1050 H   0  0  0  0  0  0  0  0  0  0  0  0
   -2.5450   -1.7510   -1.6480 H   0  0  0  0  0  0  0  0  0  0  0  0
    1.5330   -1.1670   -2.7510 H   0  0  0  0  0  0  0  0  0  0  0  0
   -1.0230    1.0410    3.6220 H   0  0  0  0  0  0  0  0  0  0  0  0
   -0.9090    1.5800    6.0280 H   0  0  0  0  0  0  0  0  0  0  0  0
    2.5650    0.3220    0.4620 H   0  0  0  0  0  0  0  0  0  0  0  0
    2.8390    0.5440   -1.2830 H   0  0  0  0  0  0  0  0  0  0  0  0
    3.0460   -1.0630   -0.5470 H   0  0  0  0  0  0  0  0  0  0  0  0
   -2.1660   -0.1090    1.6780 H   0  0  0  0  0  0  0  0  0  0  0  0
   -2.8800   -1.5990    1.0150 H   0  0  0  0  0  0  0  0  0  0  0  0
   -3.2810   -0.0230    0.2930 H   0  0  0  0  0  0  0  0  0  0  0  0
    4.1900    3.4240    5.0130 H   0  0  0  0  0  0  0  0  0  0  0  0
   -1.8480   -2.4290   -3.7330 H   0  0  0  0  0  0  0  0  0  0  0  0
   -0.1700   -3.0220   -3.7840 H   0  0  0  0  0  0  0  0  0  0  0  0
   -0.5710   -1.4260   -4.4620 H   0  0  0  0  0  0  0  0  0  0  0  0
    0.3130    2.4840    7.9460 H   0  0  0  0  0  0  0  0  0  0  0  0
    4.2930    3.9790    7.4190 H   0  0  0  0  0  0  0  0  0  0  0  0
    2.3570    3.5100    8.8830 H   0  0  0  0  0  0  0  0  0  0  0  0
  1  2  1  0  0  0  0
  1  3  1  0  0  0  0
  1 23  1  0  0  0  0
  2  4  1  0  0  0  0
  2  5  2  0  0  0  0
  3  6  1  0  0  0  0
  3 11  2  0  0  0  0
  4  9  2  0  0  0  0
  4 16  1  0  0  0  0
  5  8  1  0  0  0  0
  5 17  1  0  0  0  0
  6  7  2  0  0  0  0
  6 13  1  0  0  0  0
  7 10  1  0  0  0  0
  7 24  1  0  0  0  0
  8 12  2  0  0  0  0
  8 25  1  0  0  0  0
  9 12  1  0  0  0  0
  9 26  1  0  0  0  0
 10 14  2  0  0  0  0
 10 18  1  0  0  0  0
 12 19  1  0  0  0  0
 13 15  2  0  0  0  0
 13 27  1  0  0  0  0
 14 15  1  0  0  0  0
 14 20  1  0  0  0  0
 15 28  1  0  0  0  0
 16 29  1  0  0  0  0
 16 30  1  0  0  0  0
 16 31  1  0  0  0  0
 17 32  1  0  0  0  0
 17 33  1  0  0  0  0
 17 34  1  0  0  0  0
 18 21  2  0  0  0  0
 18 35  1  0  0  0  0
 19 36  1  0  0  0  0
 19 37  1  0  0  0  0
 19 38  1  0  0  0  0
 20 22  2  0  0  0  0
 20 39  1  0  0  0  0
 21 22  1  0  0  0  0
 21 40  1  0  0  0  0
 22 41  1  0  0  0  0
M  END
>  <$CLUSTER>
857

>  <INDEX>
65253

$$$$
InterBioScreen STOCK5S-79425
  MOE2020           3D

 41 43  0  0  1  0  0  0  0  0999 V2000
   -0.6780    0.2240   -1.3550 C   0  0  3  0  0  0  0  0  0  0  0  0
    0.3520   -0.1320    0.7330 N   0  0  0  0  0  0  0  0  0  0  0  0
    0.4980    1.0290   -1.1660 N   0  0  0  0  0  0  0  0  0  0  0  0
   -0.7140   -0.5460   -0.0380 C   0  0  0  0  0  0  0  0  0  0  0  0
    1.1050    0.8200    0.0730 C   0  0  0  0  0  0  0  0  0  0  0  0
   -0.4560   -0.7160   -2.4400 N   0  0  0  0  0  0  0  0  0  0  0  0
   -1.9310    1.0610   -1.5520 C   0  0  0  0  0  0  0  0  0  0  0  0
    0.6520   -0.6390    2.0650 C   0  0  0  0  0  0  0  0  0  0  0  0
   -1.2410   -1.6630   -2.8930 C   0  0  0  0  0  0  0  0  0  0  0  0
    1.5630   -1.8540    1.9990 C   0  0  0  0  0  0  0  0  0  0  0  0
    2.1160    1.3830    0.4720 O   0  0  0  0  0  0  0  0  0  0  0  0
   -1.5580   -1.3840    0.2550 O   0  0  0  0  0  0  0  0  0  0  0  0
   -2.3290   -1.9600   -2.4080 O   0  0  0  0  0  0  0  0  0  0  0  0
    1.7760   -2.6350    3.1810 C   0  0  0  0  0  0  0  0  0  0  0  0
   -0.6770   -2.3880   -4.0870 C   0  0  0  0  0  0  0  0  0  0  0  0
   -2.2180    1.9490   -0.4810 F   0  0  0  0  0  0  0  0  0  0  0  0
   -3.1180    0.2950   -1.5960 F   0  0  0  0  0  0  0  0  0  0  0  0
   -1.9890    1.8430   -2.6560 F   0  0  0  0  0  0  0  0  0  0  0  0
    1.0020   -2.2470    4.6800 Cl  0  0  0  0  0  0  0  0  0  0  0  0
    2.2770   -2.2390    0.8600 C   0  0  0  0  0  0  0  0  0  0  0  0
    2.6300   -3.7440    3.1730 C   0  0  0  0  0  0  0  0  0  0  0  0
    0.6560   -2.5150   -4.3500 C   0  0  0  0  0  0  0  0  0  0  0  0
   -1.6330   -3.0270   -4.9400 C   0  0  0  0  0  0  0  0  0  0  0  0
    3.1290   -3.3460    0.8510 C   0  0  0  0  0  0  0  0  0  0  0  0
   -1.1870   -3.7310   -6.0590 C   0  0  0  0  0  0  0  0  0  0  0  0
    1.0970   -3.2220   -5.4710 C   0  0  0  0  0  0  0  0  0  0  0  0
    3.3030   -4.1010    2.0070 C   0  0  0  0  0  0  0  0  0  0  0  0
    0.1770   -3.8280   -6.3260 C   0  0  0  0  0  0  0  0  0  0  0  0
    0.8480    1.6770   -1.8570 H   0  0  0  0  0  0  0  0  0  0  0  0
    0.4310   -0.6270   -2.9140 H   0  0  0  0  0  0  0  0  0  0  0  0
   -0.2790   -0.9190    2.5570 H   0  0  0  0  0  0  0  0  0  0  0  0
    1.1450    0.1440    2.6410 H   0  0  0  0  0  0  0  0  0  0  0  0
    2.1660   -1.6600   -0.0450 H   0  0  0  0  0  0  0  0  0  0  0  0
    2.7670   -4.3240    4.0730 H   0  0  0  0  0  0  0  0  0  0  0  0
    1.3770   -2.0640   -3.6850 H   0  0  0  0  0  0  0  0  0  0  0  0
   -2.6880   -2.9650   -4.7200 H   0  0  0  0  0  0  0  0  0  0  0  0
    3.6530   -3.6160   -0.0540 H   0  0  0  0  0  0  0  0  0  0  0  0
   -1.9000   -4.2020   -6.7190 H   0  0  0  0  0  0  0  0  0  0  0  0
    2.1540   -3.3000   -5.6760 H   0  0  0  0  0  0  0  0  0  0  0  0
    3.9570   -4.9600    2.0000 H   0  0  0  0  0  0  0  0  0  0  0  0
    0.5210   -4.3710   -7.1940 H   0  0  0  0  0  0  0  0  0  0  0  0
  1  3  1  0  0  0  0
  1  4  1  0  0  0  0
  1  6  1  0  0  0  0
  1  7  1  0  0  0  0
  2  4  1  0  0  0  0
  2  5  1  0  0  0  0
  2  8  1  0  0  0  0
  3  5  1  0  0  0  0
  3 29  1  0  0  0  0
  4 12  2  0  0  0  0
  5 11  2  0  0  0  0
  6  9  1  0  0  0  0
  6 30  1  0  0  0  0
  7 16  1  0  0  0  0
  7 17  1  0  0  0  0
  7 18  1  0  0  0  0
  8 10  1  0  0  0  0
  8 31  1  0  0  0  0
  8 32  1  0  0  0  0
  9 13  2  0  0  0  0
  9 15  1  0  0  0  0
 10 14  2  0  0  0  0
 10 20  1  0  0  0  0
 14 19  1  0  0  0  0
 14 21  1  0  0  0  0
 15 22  1  0  0  0  0
 15 23  2  0  0  0  0
 20 24  2  0  0  0  0
 20 33  1  0  0  0  0
 21 27  2  0  0  0  0
 21 34  1  0  0  0  0
 22 26  2  0  0  0  0
 22 35  1  0  0  0  0
 23 25  1  0  0  0  0
 23 36  1  0  0  0  0
 24 27  1  0  0  0  0
 24 37  1  0  0  0  0
 25 28  2  0  0  0  0
 25 38  1  0  0  0  0
 26 28  1  0  0  0  0
 26 39  1  0  0  0  0
 27 40  1  0  0  0  0
 28 41  1  0  0  0  0
M  END
>  <$CLUSTER>
858

>  <INDEX>
389014

$$$$
Specs AG-690/11191358
  MOE2020           3D

 42 45  0  0  0  0  0  0  0  0999 V2000
    3.2260    1.2850    0.3160 C   0  0  0  0  0  0  0  0  0  0  0  0
    3.6430    2.0350   -0.8860 C   0  0  0  0  0  0  0  0  0  0  0  0
    4.9360    2.3890   -0.5830 N   0  0  0  0  0  0  0  0  0  0  0  0
    5.3800    1.9850    0.6570 N   0  0  0  0  0  0  0  0  0  0  0  0
    4.4120    1.3460    1.2520 C   0  0  0  0  0  0  0  0  0  0  0  0
    2.1530    0.6330    0.6050 N   0  0  0  0  0  0  0  0  0  0  0  0
    2.9540    2.2450   -1.8640 O   0  0  0  0  0  0  0  0  0  0  0  0
    1.2200    0.6720   -0.3670 N   0  0  0  0  0  0  0  0  0  0  0  0
    5.8410    3.1850   -1.3630 C   0  0  0  0  0  0  0  0  0  0  0  0
    4.4990    0.7840    2.5970 C   0  0  0  0  0  0  0  0  0  0  0  0
   -0.0090    0.0110   -0.2100 C   0  0  0  0  0  0  0  0  0  0  0  0
   -2.5020   -1.2830    0.0200 C   0  0  0  0  0  0  0  0  0  0  0  0
   -3.6980   -1.8670    0.0550 F   0  0  0  0  0  0  0  0  0  0  0  0
   -0.3390   -0.7160    0.9440 C   0  0  0  0  0  0  0  0  0  0  0  0
   -0.9560    0.0750   -1.2450 C   0  0  0  0  0  0  0  0  0  0  0  0
   -1.5760   -1.3580    1.0580 C   0  0  0  0  0  0  0  0  0  0  0  0
   -2.1910   -0.5660   -1.1320 C   0  0  0  0  0  0  0  0  0  0  0  0
    7.1280    3.4910   -0.8870 C   0  0  0  0  0  0  0  0  0  0  0  0
    5.4790    3.6580   -2.6330 C   0  0  0  0  0  0  0  0  0  0  0  0
    3.3730    0.6660    3.4130 C   0  0  0  0  0  0  0  0  0  0  0  0
    5.7520    0.3870    3.0780 C   0  0  0  0  0  0  0  0  0  0  0  0
    5.8710   -0.1440    4.3630 C   0  0  0  0  0  0  0  0  0  0  0  0
    3.4980    0.1340    4.6980 C   0  0  0  0  0  0  0  0  0  0  0  0
    8.0210    4.2430   -1.6560 C   0  0  0  0  0  0  0  0  0  0  0  0
    6.3740    4.4100   -3.4010 C   0  0  0  0  0  0  0  0  0  0  0  0
    4.7440   -0.2740    5.1720 C   0  0  0  0  0  0  0  0  0  0  0  0
    7.6440    4.7030   -2.9140 C   0  0  0  0  0  0  0  0  0  0  0  0
    1.4070    1.1830   -1.2180 H   0  0  0  0  0  0  0  0  0  0  0  0
    0.3720   -0.7810    1.7550 H   0  0  0  0  0  0  0  0  0  0  0  0
   -0.7250    0.6290   -2.1430 H   0  0  0  0  0  0  0  0  0  0  0  0
   -1.8140   -1.9130    1.9530 H   0  0  0  0  0  0  0  0  0  0  0  0
   -2.9060   -0.5060   -1.9390 H   0  0  0  0  0  0  0  0  0  0  0  0
    7.4320    3.1400    0.0880 H   0  0  0  0  0  0  0  0  0  0  0  0
    4.4960    3.4390   -3.0230 H   0  0  0  0  0  0  0  0  0  0  0  0
    2.4070    0.9860    3.0510 H   0  0  0  0  0  0  0  0  0  0  0  0
    6.6270    0.4920    2.4540 H   0  0  0  0  0  0  0  0  0  0  0  0
    6.8380   -0.4550    4.7310 H   0  0  0  0  0  0  0  0  0  0  0  0
    2.6260    0.0380    5.3270 H   0  0  0  0  0  0  0  0  0  0  0  0
    9.0060    4.4670   -1.2730 H   0  0  0  0  0  0  0  0  0  0  0  0
    6.0780    4.7650   -4.3770 H   0  0  0  0  0  0  0  0  0  0  0  0
    4.8360   -0.6900    6.1640 H   0  0  0  0  0  0  0  0  0  0  0  0
    8.3330    5.2840   -3.5090 H   0  0  0  0  0  0  0  0  0  0  0  0
  1  2  1  0  0  0  0
  1  5  1  0  0  0  0
  1  6  2  0  0  0  0
  2  3  1  0  0  0  0
  2  7  2  0  0  0  0
  3  4  1  0  0  0  0
  3  9  1  0  0  0  0
  4  5  2  0  0  0  0
  5 10  1  0  0  0  0
  6  8  1  0  0  0  0
  8 11  1  0  0  0  0
  8 28  1  0  0  0  0
  9 18  2  0  0  0  0
  9 19  1  0  0  0  0
 10 20  1  0  0  0  0
 10 21  2  0  0  0  0
 11 14  2  0  0  0  0
 11 15  1  0  0  0  0
 12 13  1  0  0  0  0
 12 16  2  0  0  0  0
 12 17  1  0  0  0  0
 14 16  1  0  0  0  0
 14 29  1  0  0  0  0
 15 17  2  0  0  0  0
 15 30  1  0  0  0  0
 16 31  1  0  0  0  0
 17 32  1  0  0  0  0
 18 24  1  0  0  0  0
 18 33  1  0  0  0  0
 19 25  2  0  0  0  0
 19 34  1  0  0  0  0
 20 23  2  0  0  0  0
 20 35  1  0  0  0  0
 21 22  1  0  0  0  0
 21 36  1  0  0  0  0
 22 26  2  0  0  0  0
 22 37  1  0  0  0  0
 23 26  1  0  0  0  0
 23 38  1  0  0  0  0
 24 27  2  0  0  0  0
 24 39  1  0  0  0  0
 25 27  1  0  0  0  0
 25 40  1  0  0  0  0
 26 41  1  0  0  0  0
 27 42  1  0  0  0  0
M  END
>  <$CLUSTER>
859

>  <INDEX>
495353

$$$$
Otava 0120630218
  MOE2020           3D

 34 35  0  0  1  0  0  0  0  0999 V2000
    1.2820    0.5840   -1.0500 C   0  0  0  0  0  0  0  0  0  0  0  0
    0.2440   -0.0850   -0.2560 C   0  0  0  0  0  0  0  0  0  0  0  0
    2.5260    0.0500   -0.9470 N   0  0  0  0  0  0  0  0  0  0  0  0
    3.7140    0.5230   -1.6380 C   0  0  3  0  0  0  0  0  0  0  0  0
    4.9700    0.2790   -0.8060 C   0  0  0  0  0  0  0  0  0  0  0  0
   -0.5510    0.6010    0.6620 C   0  0  0  0  0  0  0  0  0  0  0  0
    1.0180    1.5420   -1.7690 O   0  0  0  0  0  0  0  0  0  0  0  0
    3.8280   -0.1420   -3.0060 C   0  0  0  0  0  0  0  0  0  0  0  0
    5.7130   -0.7390   -1.0200 O   0  0  0  0  0  0  0  0  0  0  0  0
    5.2280    1.1630    0.1220 O   0  5  0  0  0  0  0  0  0  0  0  0
   -0.3210    2.4400    1.0670 Br  0  0  0  0  0  0  0  0  0  0  0  0
    4.9560    0.3650   -3.8860 C   0  0  0  0  0  0  0  0  0  0  0  0
    0.0440   -1.4570   -0.4670 C   0  0  0  0  0  0  0  0  0  0  0  0
   -1.5470   -0.0870    1.3670 C   0  0  0  0  0  0  0  0  0  0  0  0
    6.2250   -0.1960   -3.7740 C   0  0  0  0  0  0  0  0  0  0  0  0
    4.7480    1.4710   -4.7060 C   0  0  0  0  0  0  0  0  0  0  0  0
   -0.9490   -2.1370    0.2380 C   0  0  0  0  0  0  0  0  0  0  0  0
   -1.7450   -1.4520    1.1530 C   0  0  0  0  0  0  0  0  0  0  0  0
    5.8010    1.9750   -5.4710 C   0  0  0  0  0  0  0  0  0  0  0  0
    7.2770    0.3100   -4.5390 C   0  0  0  0  0  0  0  0  0  0  0  0
    7.0640    1.3940   -5.3870 C   0  0  0  0  0  0  0  0  0  0  0  0
    2.6360   -0.7470   -0.3360 H   0  0  0  0  0  0  0  0  0  0  0  0
    3.6200    1.5990   -1.7830 H   0  0  0  0  0  0  0  0  0  0  0  0
    2.8900    0.0180   -3.5370 H   0  0  0  0  0  0  0  0  0  0  0  0
    3.9790   -1.2100   -2.8490 H   0  0  0  0  0  0  0  0  0  0  0  0
    0.6600   -1.9880   -1.1770 H   0  0  0  0  0  0  0  0  0  0  0  0
   -2.1640    0.4410    2.0790 H   0  0  0  0  0  0  0  0  0  0  0  0
    6.3950   -1.0200   -3.0970 H   0  0  0  0  0  0  0  0  0  0  0  0
    3.7750    1.9370   -4.7500 H   0  0  0  0  0  0  0  0  0  0  0  0
   -1.1010   -3.1940    0.0750 H   0  0  0  0  0  0  0  0  0  0  0  0
   -2.5160   -1.9770    1.6970 H   0  0  0  0  0  0  0  0  0  0  0  0
    5.6360    2.8160   -6.1280 H   0  0  0  0  0  0  0  0  0  0  0  0
    8.2570   -0.1390   -4.4730 H   0  0  0  0  0  0  0  0  0  0  0  0
    7.8780    1.7840   -5.9800 H   0  0  0  0  0  0  0  0  0  0  0  0
  1  2  1  0  0  0  0
  1  3  1  0  0  0  0
  1  7  2  0  0  0  0
  2  6  2  0  0  0  0
  2 13  1  0  0  0  0
  3  4  1  0  0  0  0
  3 22  1  0  0  0  0
  4  5  1  0  0  0  0
  4  8  1  0  0  0  0
  4 23  1  0  0  0  0
  5  9  2  0  0  0  0
  5 10  1  0  0  0  0
  6 11  1  0  0  0  0
  6 14  1  0  0  0  0
  8 12  1  0  0  0  0
  8 24  1  0  0  0  0
  8 25  1  0  0  0  0
 12 15  1  0  0  0  0
 12 16  2  0  0  0  0
 13 17  2  0  0  0  0
 13 26  1  0  0  0  0
 14 18  2  0  0  0  0
 14 27  1  0  0  0  0
 15 20  2  0  0  0  0
 15 28  1  0  0  0  0
 16 19  1  0  0  0  0
 16 29  1  0  0  0  0
 17 18  1  0  0  0  0
 17 30  1  0  0  0  0
 18 31  1  0  0  0  0
 19 21  2  0  0  0  0
 19 32  1  0  0  0  0
 20 21  1  0  0  0  0
 20 33  1  0  0  0  0
 21 34  1  0  0  0  0
M  CHG  1  10  -1
M  END
>  <$CLUSTER>
860

>  <INDEX>
431950

$$$$
Maybridge HTS 06299
  MOE2020           3D

 35 37  0  0  0  0  0  0  0  0999 V2000
   -1.8690    0.9210    0.3550 S   0  0  0  0  0  0  0  0  0  0  0  0
   -0.9390    0.3480   -0.9270 N   0  0  0  0  0  0  0  0  0  0  0  0
    1.5050    5.3840    2.6790 C   0  0  0  0  0  0  0  0  0  0  0  0
    1.3630    0.4890   -0.7780 N   0  0  0  0  0  0  0  0  0  0  0  0
    0.2730   -0.2860   -0.5900 C   0  0  0  0  0  0  0  0  0  0  0  0
   -0.8610    2.2530    1.0070 C   0  0  0  0  0  0  0  0  0  0  0  0
   -1.9950   -0.1170    1.3660 O   0  0  0  0  0  0  0  0  0  0  0  0
   -3.0730    1.5040   -0.2190 O   0  0  0  0  0  0  0  0  0  0  0  0
    0.6610    4.2990    2.0800 C   0  0  0  0  0  0  0  0  0  0  0  0
    2.5550   -0.0680   -0.4480 C   0  0  0  0  0  0  0  0  0  0  0  0
    0.0530    1.9590    2.0170 C   0  0  0  0  0  0  0  0  0  0  0  0
   -1.0400    3.5430    0.5360 C   0  0  0  0  0  0  0  0  0  0  0  0
   -0.2690    4.5730    1.0740 C   0  0  0  0  0  0  0  0  0  0  0  0
    0.8220    2.9950    2.5500 C   0  0  0  0  0  0  0  0  0  0  0  0
    2.8290    5.1180    2.5080 F   0  0  0  0  0  0  0  0  0  0  0  0
    1.2950    5.4740    4.0210 F   0  0  0  0  0  0  0  0  0  0  0  0
    1.2920    6.6300    2.1720 F   0  0  0  0  0  0  0  0  0  0  0  0
    2.6950   -1.3520    0.0640 C   0  0  0  0  0  0  0  0  0  0  0  0
    1.5460   -2.1170    0.2510 C   0  0  0  0  0  0  0  0  0  0  0  0
    0.3060   -1.5750   -0.0810 C   0  0  0  0  0  0  0  0  0  0  0  0
    3.7300    0.7040   -0.6320 C   0  0  0  0  0  0  0  0  0  0  0  0
    3.9670   -1.8710    0.3930 C   0  0  0  0  0  0  0  0  0  0  0  0
    4.9900    0.1940   -0.3100 C   0  0  0  0  0  0  0  0  0  0  0  0
    5.1090   -1.0940    0.2020 C   0  0  0  0  0  0  0  0  0  0  0  0
   -1.2350    0.4530   -1.8870 H   0  0  0  0  0  0  0  0  0  0  0  0
    0.1640    0.9480    2.3810 H   0  0  0  0  0  0  0  0  0  0  0  0
   -1.7660    3.7480   -0.2370 H   0  0  0  0  0  0  0  0  0  0  0  0
   -0.3910    5.5830    0.7130 H   0  0  0  0  0  0  0  0  0  0  0  0
    1.5430    2.7870    3.3270 H   0  0  0  0  0  0  0  0  0  0  0  0
    1.6150   -3.1190    0.6490 H   0  0  0  0  0  0  0  0  0  0  0  0
   -0.6030   -2.1430    0.0540 H   0  0  0  0  0  0  0  0  0  0  0  0
    3.6490    1.7050   -1.0290 H   0  0  0  0  0  0  0  0  0  0  0  0
    4.0550   -2.8700    0.7930 H   0  0  0  0  0  0  0  0  0  0  0  0
    5.8720    0.8000   -0.4590 H   0  0  0  0  0  0  0  0  0  0  0  0
    6.0820   -1.4910    0.4510 H   0  0  0  0  0  0  0  0  0  0  0  0
  1  2  1  0  0  0  0
  1  6  1  0  0  0  0
  1  7  2  0  0  0  0
  1  8  2  0  0  0  0
  2  5  1  0  0  0  0
  2 25  1  0  0  0  0
  3  9  1  0  0  0  0
  3 15  1  0  0  0  0
  3 16  1  0  0  0  0
  3 17  1  0  0  0  0
  4  5  1  0  0  0  0
  4 10  2  0  0  0  0
  5 20  2  0  0  0  0
  6 11  1  0  0  0  0
  6 12  2  0  0  0  0
  9 13  2  0  0  0  0
  9 14  1  0  0  0  0
 10 18  1  0  0  0  0
 10 21  1  0  0  0  0
 11 14  2  0  0  0  0
 11 26  1  0  0  0  0
 12 13  1  0  0  0  0
 12 27  1  0  0  0  0
 13 28  1  0  0  0  0
 14 29  1  0  0  0  0
 18 19  2  0  0  0  0
 18 22  1  0  0  0  0
 19 20  1  0  0  0  0
 19 30  1  0  0  0  0
 20 31  1  0  0  0  0
 21 23  2  0  0  0  0
 21 32  1  0  0  0  0
 22 24  2  0  0  0  0
 22 33  1  0  0  0  0
 23 24  1  0  0  0  0
 23 34  1  0  0  0  0
 24 35  1  0  0  0  0
M  END
>  <$CLUSTER>
861

>  <INDEX>
551739

$$$$
Maybridge KM 02208
  MOE2020           3D

 31 32  0  0  0  0  0  0  0  0999 V2000
    0.6350    1.6540    0.9040 S   0  0  0  0  0  0  0  0  0  0  0  0
   -0.2730    0.2910    0.2990 C   0  0  0  0  0  0  0  0  0  0  0  0
   -1.5560    0.1430    0.6660 C   0  0  0  0  0  0  0  0  0  0  0  0
    0.3460   -0.6570   -0.5780 C   0  0  0  0  0  0  0  0  0  0  0  0
    0.8470   -1.4300   -1.2910 N   0  0  0  0  0  0  0  0  0  0  0  0
   -4.4490   -2.0460    0.2170 N   0  0  0  0  0  0  0  0  0  0  0  0
   -0.2300    2.8230    0.9890 O   0  0  0  0  0  0  0  0  0  0  0  0
    1.8920    1.7270    0.2090 O   0  0  0  0  0  0  0  0  0  0  0  0
    0.9830    1.1430    2.5710 C   0  0  0  0  0  0  0  0  0  0  0  0
   -3.8110   -0.9570    0.7340 C   0  0  0  0  0  0  0  0  0  0  0  0
   -2.5100   -0.7880    0.3740 N   0  0  0  0  0  0  0  0  0  0  0  0
   -5.7520   -2.2460    0.5550 C   0  0  0  0  0  0  0  0  0  0  0  0
   -6.4700   -1.4090    1.3940 C   0  0  0  0  0  0  0  0  0  0  0  0
   -4.4800   -0.0710    1.5870 C   0  0  0  0  0  0  0  0  0  0  0  0
   -8.0880   -1.7130    1.7760 Cl  0  0  0  0  0  0  0  0  0  0  0  0
   -5.8170   -0.3010    1.9180 C   0  0  0  0  0  0  0  0  0  0  0  0
   -0.0290    1.2270    3.5360 C   0  0  0  0  0  0  0  0  0  0  0  0
    2.2730    0.7440    2.9350 C   0  0  0  0  0  0  0  0  0  0  0  0
    2.5340    0.3760    4.2550 C   0  0  0  0  0  0  0  0  0  0  0  0
    0.2400    0.8580    4.8530 C   0  0  0  0  0  0  0  0  0  0  0  0
    1.5200    0.4320    5.2130 C   0  0  0  0  0  0  0  0  0  0  0  0
   -1.9050    0.9210    1.3290 H   0  0  0  0  0  0  0  0  0  0  0  0
   -2.1760   -1.5120   -0.2470 H   0  0  0  0  0  0  0  0  0  0  0  0
   -6.2560   -3.1080    0.1450 H   0  0  0  0  0  0  0  0  0  0  0  0
   -3.9630    0.7880    1.9880 H   0  0  0  0  0  0  0  0  0  0  0  0
   -6.3390    0.3770    2.5760 H   0  0  0  0  0  0  0  0  0  0  0  0
   -1.0130    1.5760    3.2610 H   0  0  0  0  0  0  0  0  0  0  0  0
    3.0630    0.7210    2.1980 H   0  0  0  0  0  0  0  0  0  0  0  0
    3.5230    0.0470    4.5370 H   0  0  0  0  0  0  0  0  0  0  0  0
   -0.5430    0.9020    5.5960 H   0  0  0  0  0  0  0  0  0  0  0  0
    1.7260    0.1450    6.2340 H   0  0  0  0  0  0  0  0  0  0  0  0
  1  2  1  0  0  0  0
  1  7  2  0  0  0  0
  1  8  2  0  0  0  0
  1  9  1  0  0  0  0
  2  3  2  0  0  0  0
  2  4  1  0  0  0  0
  3 11  1  0  0  0  0
  3 22  1  0  0  0  0
  4  5  3  0  0  0  0
  6 10  2  0  0  0  0
  6 12  1  0  0  0  0
  9 17  1  0  0  0  0
  9 18  2  0  0  0  0
 10 11  1  0  0  0  0
 10 14  1  0  0  0  0
 11 23  1  0  0  0  0
 12 13  2  0  0  0  0
 12 24  1  0  0  0  0
 13 15  1  0  0  0  0
 13 16  1  0  0  0  0
 14 16  2  0  0  0  0
 14 25  1  0  0  0  0
 16 26  1  0  0  0  0
 17 20  2  0  0  0  0
 17 27  1  0  0  0  0
 18 19  1  0  0  0  0
 18 28  1  0  0  0  0
 19 21  2  0  0  0  0
 19 29  1  0  0  0  0
 20 21  1  0  0  0  0
 20 30  1  0  0  0  0
 21 31  1  0  0  0  0
M  END
>  <$CLUSTER>
862

>  <INDEX>
555236

$$$$
Maybridge KM 06855
  MOE2020           3D

 34 36  0  0  1  0  0  0  0  0999 V2000
   -2.8190   -4.3140   -1.8200 C   0  0  0  0  0  0  0  0  0  0  0  0
   -2.0110   -3.4190   -1.1490 N   0  0  0  0  0  0  0  0  0  0  0  0
   -2.3440   -2.1990   -1.5040 C   0  0  0  0  0  0  0  0  0  0  0  0
   -2.6690   -5.7610   -1.6160 C   0  0  0  0  0  0  0  0  0  0  0  0
   -1.6610   -0.9550   -0.9560 C   0  0  3  0  0  0  0  0  0  0  0  0
   -0.2440   -1.1570   -1.0490 O   0  0  0  0  0  0  0  0  0  0  0  0
   -3.6160   -2.0540   -2.6370 S   0  0  0  0  0  0  0  0  0  0  0  0
   -3.7500   -3.7610   -2.6710 C   0  0  0  0  0  0  0  0  0  0  0  0
   -1.4580    0.5150    0.9620 O   0  0  0  0  0  0  0  0  0  0  0  0
    0.4580   -0.2180   -0.3400 C   0  0  0  0  0  0  0  0  0  0  0  0
   -2.0510   -0.7010    0.4950 C   0  0  0  0  0  0  0  0  0  0  0  0
   -1.6780   -6.1010   -0.7220 N   0  0  0  0  0  0  0  0  0  0  0  0
   -0.1320    0.5990    0.6260 C   0  0  0  0  0  0  0  0  0  0  0  0
   -3.3660   -6.5920   -2.1930 O   0  0  0  0  0  0  0  0  0  0  0  0
    1.8220   -0.1060   -0.6130 C   0  0  0  0  0  0  0  0  0  0  0  0
   -1.4170   -7.5400   -0.4200 C   0  0  0  0  0  0  0  0  0  0  0  0
   -0.7940   -5.1950    0.0170 C   0  0  0  0  0  0  0  0  0  0  0  0
    0.6310    1.5600    1.2900 C   0  0  0  0  0  0  0  0  0  0  0  0
    2.5880    0.8460    0.0610 C   0  0  0  0  0  0  0  0  0  0  0  0
    1.9920    1.6820    1.0070 C   0  0  0  0  0  0  0  0  0  0  0  0
   -1.9720   -0.0850   -1.5350 H   0  0  0  0  0  0  0  0  0  0  0  0
   -4.4560   -4.3180   -3.2680 H   0  0  0  0  0  0  0  0  0  0  0  0
   -1.7040   -1.5300    1.1110 H   0  0  0  0  0  0  0  0  0  0  0  0
   -3.1360   -0.6230    0.5680 H   0  0  0  0  0  0  0  0  0  0  0  0
    2.2830   -0.7540   -1.3440 H   0  0  0  0  0  0  0  0  0  0  0  0
   -2.1020   -8.1620   -0.9960 H   0  0  0  0  0  0  0  0  0  0  0  0
   -1.5690   -7.7210    0.6440 H   0  0  0  0  0  0  0  0  0  0  0  0
   -0.3890   -7.7870   -0.6870 H   0  0  0  0  0  0  0  0  0  0  0  0
   -1.0310   -4.1630   -0.2440 H   0  0  0  0  0  0  0  0  0  0  0  0
    0.2430   -5.4070   -0.2430 H   0  0  0  0  0  0  0  0  0  0  0  0
   -0.9370   -5.3410    1.0880 H   0  0  0  0  0  0  0  0  0  0  0  0
    0.1700    2.2080    2.0210 H   0  0  0  0  0  0  0  0  0  0  0  0
    3.6430    0.9360   -0.1490 H   0  0  0  0  0  0  0  0  0  0  0  0
    2.5850    2.4240    1.5210 H   0  0  0  0  0  0  0  0  0  0  0  0
  1  2  1  0  0  0  0
  1  4  1  0  0  0  0
  1  8  2  0  0  0  0
  2  3  2  0  0  0  0
  3  5  1  0  0  0  0
  3  7  1  0  0  0  0
  4 12  1  0  0  0  0
  4 14  2  0  0  0  0
  5  6  1  0  0  0  0
  5 11  1  0  0  0  0
  5 21  1  0  0  0  0
  6 10  1  0  0  0  0
  7  8  1  0  0  0  0
  8 22  1  0  0  0  0
  9 11  1  0  0  0  0
  9 13  1  0  0  0  0
 10 13  2  0  0  0  0
 10 15  1  0  0  0  0
 11 23  1  0  0  0  0
 11 24  1  0  0  0  0
 12 16  1  0  0  0  0
 12 17  1  0  0  0  0
 13 18  1  0  0  0  0
 15 19  2  0  0  0  0
 15 25  1  0  0  0  0
 16 26  1  0  0  0  0
 16 27  1  0  0  0  0
 16 28  1  0  0  0  0
 17 29  1  0  0  0  0
 17 30  1  0  0  0  0
 17 31  1  0  0  0  0
 18 20  2  0  0  0  0
 18 32  1  0  0  0  0
 19 20  1  0  0  0  0
 19 33  1  0  0  0  0
 20 34  1  0  0  0  0
M  END
>  <$CLUSTER>
863

>  <INDEX>
556402

$$$$
Maybridge KM 09691
  MOE2020           3D

 38 41  0  0  0  0  0  0  0  0999 V2000
   -0.3250   -1.7640    1.1710 N   0  0  0  0  0  0  0  0  0  0  0  0
    0.2640   -0.4530    1.0760 C   0  0  0  0  0  0  0  0  0  0  0  0
    0.1120    0.2050   -0.1780 N   0  0  0  0  0  0  0  0  0  0  0  0
   -0.5930   -0.4220   -1.2050 C   0  0  0  0  0  0  0  0  0  0  0  0
   -1.1480   -1.6630   -1.0310 C   0  0  0  0  0  0  0  0  0  0  0  0
   -1.0730   -2.4290    0.1670 C   0  0  0  0  0  0  0  0  0  0  0  0
   -0.7850    0.0170   -2.4920 N   0  0  0  0  0  0  0  0  0  0  0  0
   -1.7320   -1.9750   -2.2250 N   0  0  0  0  0  0  0  0  0  0  0  0
   -1.4860   -0.9320   -3.0750 C   0  0  0  0  0  0  0  0  0  0  0  0
    0.6720    1.5030   -0.4270 C   0  0  0  0  0  0  0  0  0  0  0  0
   -0.1550   -2.4770    2.4440 C   0  0  0  0  0  0  0  0  0  0  0  0
    0.8180    0.0680    2.0500 O   0  0  0  0  0  0  0  0  0  0  0  0
   -1.6010   -3.5310    0.2950 O   0  0  0  0  0  0  0  0  0  0  0  0
    1.9250    1.8520    0.1070 C   0  0  0  0  0  0  0  0  0  0  0  0
   -0.0070    2.4720   -1.1860 C   0  0  0  0  0  0  0  0  0  0  0  0
    1.7960    4.0560   -0.8790 C   0  0  0  0  0  0  0  0  0  0  0  0
   -1.2830   -2.1570    3.4140 C   0  0  0  0  0  0  0  0  0  0  0  0
    0.5510    3.7350   -1.4100 C   0  0  0  0  0  0  0  0  0  0  0  0
    2.4820    3.1140   -0.1200 C   0  0  0  0  0  0  0  0  0  0  0  0
    2.4630    5.5940   -1.1640 Cl  0  0  0  0  0  0  0  0  0  0  0  0
   -2.3590   -3.0410    3.5680 C   0  0  0  0  0  0  0  0  0  0  0  0
   -1.2620   -0.9690    4.1580 C   0  0  0  0  0  0  0  0  0  0  0  0
   -3.3890   -2.7490    4.4680 C   0  0  0  0  0  0  0  0  0  0  0  0
   -2.2910   -0.6790    5.0570 C   0  0  0  0  0  0  0  0  0  0  0  0
   -3.3530   -1.5710    5.2130 C   0  0  0  0  0  0  0  0  0  0  0  0
   -2.2480   -2.8160   -2.4400 H   0  0  0  0  0  0  0  0  0  0  0  0
   -1.8260   -0.8920   -4.0990 H   0  0  0  0  0  0  0  0  0  0  0  0
    0.7930   -2.1810    2.8930 H   0  0  0  0  0  0  0  0  0  0  0  0
   -0.1460   -3.5500    2.2510 H   0  0  0  0  0  0  0  0  0  0  0  0
    2.4670    1.1320    0.7030 H   0  0  0  0  0  0  0  0  0  0  0  0
   -0.9750    2.2380   -1.6030 H   0  0  0  0  0  0  0  0  0  0  0  0
    0.0130    4.4640   -1.9980 H   0  0  0  0  0  0  0  0  0  0  0  0
    3.4480    3.3580    0.2960 H   0  0  0  0  0  0  0  0  0  0  0  0
   -2.3930   -3.9520    2.9890 H   0  0  0  0  0  0  0  0  0  0  0  0
   -0.4450   -0.2730    4.0350 H   0  0  0  0  0  0  0  0  0  0  0  0
   -4.2130   -3.4370    4.5860 H   0  0  0  0  0  0  0  0  0  0  0  0
   -2.2650    0.2350    5.6310 H   0  0  0  0  0  0  0  0  0  0  0  0
   -4.1470   -1.3490    5.9110 H   0  0  0  0  0  0  0  0  0  0  0  0
  1  2  1  0  0  0  0
  1  6  1  0  0  0  0
  1 11  1  0  0  0  0
  2  3  1  0  0  0  0
  2 12  2  0  0  0  0
  3  4  1  0  0  0  0
  3 10  1  0  0  0  0
  4  5  2  0  0  0  0
  4  7  1  0  0  0  0
  5  6  1  0  0  0  0
  5  8  1  0  0  0  0
  6 13  2  0  0  0  0
  7  9  2  0  0  0  0
  8  9  1  0  0  0  0
  8 26  1  0  0  0  0
  9 27  1  0  0  0  0
 10 14  1  0  0  0  0
 10 15  2  0  0  0  0
 11 17  1  0  0  0  0
 11 28  1  0  0  0  0
 11 29  1  0  0  0  0
 14 19  2  0  0  0  0
 14 30  1  0  0  0  0
 15 18  1  0  0  0  0
 15 31  1  0  0  0  0
 16 18  2  0  0  0  0
 16 19  1  0  0  0  0
 16 20  1  0  0  0  0
 17 21  2  0  0  0  0
 17 22  1  0  0  0  0
 18 32  1  0  0  0  0
 19 33  1  0  0  0  0
 21 23  1  0  0  0  0
 21 34  1  0  0  0  0
 22 24  2  0  0  0  0
 22 35  1  0  0  0  0
 23 25  2  0  0  0  0
 23 36  1  0  0  0  0
 24 25  1  0  0  0  0
 24 37  1  0  0  0  0
 25 38  1  0  0  0  0
M  END
>  <$CLUSTER>
864

>  <INDEX>
557184

$$$$
Akos AKB-ICA-0079
  MOE2020           3D

 18 19  0  0  0  0  0  0  0  0999 V2000
   -2.0610    0.1650    1.2560 C   0  0  0  0  0  0  0  0  0  0  0  0
   -0.8320    0.6690    1.5880 N   0  0  0  0  0  0  0  0  0  0  0  0
   -1.9420   -0.4780    0.0450 C   0  0  0  0  0  0  0  0  0  0  0  0
    0.0870    0.3620    0.6110 C   0  0  0  0  0  0  0  0  0  0  0  0
   -3.2840    0.2850    2.0080 C   0  0  0  0  0  0  0  0  0  0  0  0
   -0.5870   -0.3610   -0.3750 C   0  0  0  0  0  0  0  0  0  0  0  0
    1.4500    0.6670    0.5240 C   0  0  0  0  0  0  0  0  0  0  0  0
   -4.1480   -0.6250    1.8430 O   0  0  0  0  0  0  0  0  0  0  0  0
    0.1320   -0.8030   -1.5030 C   0  0  0  0  0  0  0  0  0  0  0  0
    2.1430    0.2180   -0.6040 C   0  0  0  0  0  0  0  0  0  0  0  0
   -3.3300    1.2960    2.7690 O   0  5  0  0  0  0  0  0  0  0  0  0
    1.4960   -0.5060   -1.6040 C   0  0  0  0  0  0  0  0  0  0  0  0
    3.4460    0.5310   -0.6460 F   0  0  0  0  0  0  0  0  0  0  0  0
   -0.6290    1.1910    2.4290 H   0  0  0  0  0  0  0  0  0  0  0  0
   -2.7340   -0.9810   -0.4900 H   0  0  0  0  0  0  0  0  0  0  0  0
    1.9480    1.2290    1.3000 H   0  0  0  0  0  0  0  0  0  0  0  0
   -0.3640   -1.3650   -2.2810 H   0  0  0  0  0  0  0  0  0  0  0  0
    2.0530   -0.8410   -2.4660 H   0  0  0  0  0  0  0  0  0  0  0  0
  1  2  1  0  0  0  0
  1  3  2  0  0  0  0
  1  5  1  0  0  0  0
  2  4  1  0  0  0  0
  2 14  1  0  0  0  0
  3  6  1  0  0  0  0
  3 15  1  0  0  0  0
  4  6  2  0  0  0  0
  4  7  1  0  0  0  0
  5  8  2  0  0  0  0
  5 11  1  0  0  0  0
  6  9  1  0  0  0  0
  7 10  2  0  0  0  0
  7 16  1  0  0  0  0
  9 12  2  0  0  0  0
  9 17  1  0  0  0  0
 10 12  1  0  0  0  0
 10 13  1  0  0  0  0
 12 18  1  0  0  0  0
M  CHG  1  11  -1
M  END
>  <$CLUSTER>
865

>  <INDEX>
124499

$$$$
Bionet 10N-091
  MOE2020           3D

 43 46  0  0  0  0  0  0  0  0999 V2000
   -5.8480   -4.5750   -0.5420 C   0  0  0  0  0  0  0  0  0  0  0  0
   -6.3540   -5.4260   -1.6590 C   0  0  0  0  0  0  0  0  0  0  0  0
   -7.6760   -5.8010   -1.5860 N   0  0  0  0  0  0  0  0  0  0  0  0
   -6.6910   -4.2480    0.4460 C   0  0  0  0  0  0  0  0  0  0  0  0
   -8.0720   -4.6810    0.4340 C   0  0  0  0  0  0  0  0  0  0  0  0
   -4.3880   -4.2000   -0.5040 C   0  0  0  0  0  0  0  0  0  0  0  0
   -8.5210   -5.4430   -0.5710 C   0  0  0  0  0  0  0  0  0  0  0  0
    0.5110    0.3500    0.0410 C   0  0  0  0  0  0  0  0  0  0  0  0
   -4.2260   -2.8320   -0.3320 N   0  0  0  0  0  0  0  0  0  0  0  0
   -5.6470   -5.7580   -2.6070 O   0  0  0  0  0  0  0  0  0  0  0  0
   -0.6720   -0.5690   -0.0670 C   0  0  0  0  0  0  0  0  0  0  0  0
   -3.5170   -5.0560   -0.6180 O   0  0  0  0  0  0  0  0  0  0  0  0
   -9.9190   -5.9080   -0.5920 C   0  0  0  0  0  0  0  0  0  0  0  0
   -6.3850   -3.5010    1.5740 O   0  0  0  0  0  0  0  0  0  0  0  0
    0.5260    1.0200    1.2260 F   0  0  0  0  0  0  0  0  0  0  0  0
    0.5110    1.2930   -0.9410 F   0  0  0  0  0  0  0  0  0  0  0  0
    1.7040   -0.3010   -0.0500 F   0  0  0  0  0  0  0  0  0  0  0  0
   -8.2070   -6.6340   -2.7510 C   0  0  0  0  0  0  0  0  0  0  0  0
   -3.0110   -2.1120   -0.2480 C   0  0  0  0  0  0  0  0  0  0  0  0
   -2.0060    0.1090    0.0270 C   0  0  0  0  0  0  0  0  0  0  0  0
   -0.5740   -1.9010   -0.2360 C   0  0  0  0  0  0  0  0  0  0  0  0
   -8.9810   -4.2930    1.4970 C   0  0  0  0  0  0  0  0  0  0  0  0
   -3.1070   -0.7240   -0.0720 C   0  0  0  0  0  0  0  0  0  0  0  0
   -1.7420   -2.6960   -0.3300 C   0  0  0  0  0  0  0  0  0  0  0  0
   -9.3350   -7.5690   -2.3490 C   0  0  0  0  0  0  0  0  0  0  0  0
  -10.3120   -4.7050    1.4770 C   0  0  0  0  0  0  0  0  0  0  0  0
  -10.4550   -6.7680   -1.7060 C   0  0  0  0  0  0  0  0  0  0  0  0
  -10.7800   -5.5040    0.4380 C   0  0  0  0  0  0  0  0  0  0  0  0
   -5.0740   -2.2880   -0.2580 H   0  0  0  0  0  0  0  0  0  0  0  0
   -5.4740   -3.2020    1.6280 H   0  0  0  0  0  0  0  0  0  0  0  0
   -7.3880   -7.2310   -3.1530 H   0  0  0  0  0  0  0  0  0  0  0  0
   -8.5750   -5.9570   -3.5220 H   0  0  0  0  0  0  0  0  0  0  0  0
   -2.1010    1.1760    0.1630 H   0  0  0  0  0  0  0  0  0  0  0  0
    0.3990   -2.3650   -0.3000 H   0  0  0  0  0  0  0  0  0  0  0  0
   -8.6230   -3.6800    2.3110 H   0  0  0  0  0  0  0  0  0  0  0  0
   -4.0910   -0.2820   -0.0110 H   0  0  0  0  0  0  0  0  0  0  0  0
   -1.6530   -3.7640   -0.4660 H   0  0  0  0  0  0  0  0  0  0  0  0
   -8.9600   -8.3050   -1.6380 H   0  0  0  0  0  0  0  0  0  0  0  0
   -9.7160   -8.0800   -3.2330 H   0  0  0  0  0  0  0  0  0  0  0  0
  -10.9820   -4.4040    2.2690 H   0  0  0  0  0  0  0  0  0  0  0  0
  -10.9180   -6.1310   -2.4590 H   0  0  0  0  0  0  0  0  0  0  0  0
  -11.2000   -7.4540   -1.3030 H   0  0  0  0  0  0  0  0  0  0  0  0
  -11.8140   -5.8150    0.4250 H   0  0  0  0  0  0  0  0  0  0  0  0
  1  2  1  0  0  0  0
  1  4  2  0  0  0  0
  1  6  1  0  0  0  0
  2  3  1  0  0  0  0
  2 10  2  0  0  0  0
  3  7  1  0  0  0  0
  3 18  1  0  0  0  0
  4  5  1  0  0  0  0
  4 14  1  0  0  0  0
  5  7  2  0  0  0  0
  5 22  1  0  0  0  0
  6  9  1  0  0  0  0
  6 12  2  0  0  0  0
  7 13  1  0  0  0  0
  8 11  1  0  0  0  0
  8 15  1  0  0  0  0
  8 16  1  0  0  0  0
  8 17  1  0  0  0  0
  9 19  1  0  0  0  0
  9 29  1  0  0  0  0
 11 20  2  0  0  0  0
 11 21  1  0  0  0  0
 13 27  1  0  0  0  0
 13 28  2  0  0  0  0
 14 30  1  0  0  0  0
 18 25  1  0  0  0  0
 18 31  1  0  0  0  0
 18 32  1  0  0  0  0
 19 23  2  0  0  0  0
 19 24  1  0  0  0  0
 20 23  1  0  0  0  0
 20 33  1  0  0  0  0
 21 24  2  0  0  0  0
 21 34  1  0  0  0  0
 22 26  2  0  0  0  0
 22 35  1  0  0  0  0
 23 36  1  0  0  0  0
 24 37  1  0  0  0  0
 25 27  1  0  0  0  0
 25 38  1  0  0  0  0
 25 39  1  0  0  0  0
 26 28  1  0  0  0  0
 26 40  1  0  0  0  0
 27 41  1  0  0  0  0
 27 42  1  0  0  0  0
 28 43  1  0  0  0  0
M  END
>  <$CLUSTER>
866

>  <INDEX>
7580

$$$$
Sigma-Aldrich (SALOR) L233595
  MOE2020           3D

 36 37  0  0  0  0  0  0  0  0999 V2000
   -1.6960    0.3810   -0.3220 C   0  0  0  0  0  0  0  0  0  0  0  0
   -0.2580    0.2010   -0.0050 C   0  0  0  0  0  0  0  0  0  0  0  0
   -2.3620    1.2040    0.3020 O   0  0  0  0  0  0  0  0  0  0  0  0
    0.3130    0.9820    1.0080 C   0  0  0  0  0  0  0  0  0  0  0  0
    0.5360   -0.7240   -0.6890 C   0  0  0  0  0  0  0  0  0  0  0  0
   -4.3280   -1.0280   -2.6880 N   0  0  0  0  0  0  0  0  0  0  0  0
   -2.3190   -0.4550   -1.4090 C   0  0  0  0  0  0  0  0  0  0  0  0
   -5.6310   -1.0060   -3.1160 C   0  0  0  0  0  0  0  0  0  0  0  0
    2.4510   -0.0860    0.6470 C   0  0  0  0  0  0  0  0  0  0  0  0
   -8.2930   -1.0380   -4.0680 C   0  0  0  0  0  0  0  0  0  0  0  0
    1.6630    0.8370    1.3320 C   0  0  0  0  0  0  0  0  0  0  0  0
    1.8870   -0.8650   -0.3610 C   0  0  0  0  0  0  0  0  0  0  0  0
   -3.7770   -0.1940   -1.6450 C   0  0  0  0  0  0  0  0  0  0  0  0
    3.7290   -0.1610    1.0160 F   0  0  0  0  0  0  0  0  0  0  0  0
   -6.0300   -1.8780   -4.1450 C   0  0  0  0  0  0  0  0  0  0  0  0
   -6.6050   -0.1510   -2.5780 C   0  0  0  0  0  0  0  0  0  0  0  0
   -7.9230   -0.1650   -3.0500 C   0  0  0  0  0  0  0  0  0  0  0  0
   -7.3450   -1.8950   -4.6180 C   0  0  0  0  0  0  0  0  0  0  0  0
   -9.5460   -1.1450   -4.6110 O   0  0  0  0  0  0  0  0  0  0  0  0
  -10.5520   -0.2880   -4.0830 C   0  0  0  0  0  0  0  0  0  0  0  0
   -0.2940    1.6990    1.5410 H   0  0  0  0  0  0  0  0  0  0  0  0
    0.1050   -1.3300   -1.4720 H   0  0  0  0  0  0  0  0  0  0  0  0
   -3.7030   -1.6810   -3.1390 H   0  0  0  0  0  0  0  0  0  0  0  0
   -2.2020   -1.5050   -1.1390 H   0  0  0  0  0  0  0  0  0  0  0  0
   -1.7840   -0.2570   -2.3380 H   0  0  0  0  0  0  0  0  0  0  0  0
    2.0970    1.4410    2.1150 H   0  0  0  0  0  0  0  0  0  0  0  0
    2.4970   -1.5810   -0.8910 H   0  0  0  0  0  0  0  0  0  0  0  0
   -4.3210   -0.3870   -0.7200 H   0  0  0  0  0  0  0  0  0  0  0  0
   -3.9030    0.8510   -1.9300 H   0  0  0  0  0  0  0  0  0  0  0  0
   -5.3040   -2.5490   -4.5790 H   0  0  0  0  0  0  0  0  0  0  0  0
   -6.3330    0.5300   -1.7850 H   0  0  0  0  0  0  0  0  0  0  0  0
   -8.6550    0.5040   -2.6220 H   0  0  0  0  0  0  0  0  0  0  0  0
   -7.6250   -2.5730   -5.4100 H   0  0  0  0  0  0  0  0  0  0  0  0
  -11.4940   -0.4730   -4.5990 H   0  0  0  0  0  0  0  0  0  0  0  0
  -10.2570    0.7510   -4.2280 H   0  0  0  0  0  0  0  0  0  0  0  0
  -10.6750   -0.4860   -3.0180 H   0  0  0  0  0  0  0  0  0  0  0  0
  1  2  1  0  0  0  0
  1  3  2  0  0  0  0
  1  7  1  0  0  0  0
  2  4  2  0  0  0  0
  2  5  1  0  0  0  0
  4 11  1  0  0  0  0
  4 21  1  0  0  0  0
  5 12  2  0  0  0  0
  5 22  1  0  0  0  0
  6  8  1  0  0  0  0
  6 13  1  0  0  0  0
  6 23  1  0  0  0  0
  7 13  1  0  0  0  0
  7 24  1  0  0  0  0
  7 25  1  0  0  0  0
  8 15  1  0  0  0  0
  8 16  2  0  0  0  0
  9 11  2  0  0  0  0
  9 12  1  0  0  0  0
  9 14  1  0  0  0  0
 10 17  2  0  0  0  0
 10 18  1  0  0  0  0
 10 19  1  0  0  0  0
 11 26  1  0  0  0  0
 12 27  1  0  0  0  0
 13 28  1  0  0  0  0
 13 29  1  0  0  0  0
 15 18  2  0  0  0  0
 15 30  1  0  0  0  0
 16 17  1  0  0  0  0
 16 31  1  0  0  0  0
 17 32  1  0  0  0  0
 18 33  1  0  0  0  0
 19 20  1  0  0  0  0
 20 34  1  0  0  0  0
 20 35  1  0  0  0  0
 20 36  1  0  0  0  0
M  END
>  <$CLUSTER>
867

>  <INDEX>
558916

$$$$
Sigma-Aldrich (SALOR) L307122
  MOE2020           3D

 30 31  0  0  0  0  0  0  0  0999 V2000
   -0.3080   -0.2040    0.0530 C   0  0  0  0  0  0  0  0  0  0  0  0
   -1.0670   -0.4380   -1.1670 C   0  0  0  0  0  0  0  0  0  0  0  0
   -1.8740   -1.5550   -1.1490 N   0  0  0  0  0  0  0  0  0  0  0  0
   -2.7070   -1.9800   -2.2340 C   0  0  0  0  0  0  0  0  0  0  0  0
    0.5620    0.8580    0.2600 C   0  0  0  0  0  0  0  0  0  0  0  0
   -0.2680   -0.9560    1.2650 C   0  0  0  0  0  0  0  0  0  0  0  0
   -2.6850   -1.2250   -3.3350 N   0  0  0  0  0  0  0  0  0  0  0  0
    1.1140    0.7910    1.5040 O   0  0  0  0  0  0  0  0  0  0  0  0
   -3.6430   -3.3500   -2.1010 S   0  0  0  0  0  0  0  0  0  0  0  0
    0.6060   -0.3110    2.1050 C   0  0  0  0  0  0  0  0  0  0  0  0
   -0.9980    0.3030   -2.1450 O   0  0  0  0  0  0  0  0  0  0  0  0
   -3.2200   -1.1180   -4.6030 C   0  0  0  0  0  0  0  0  0  0  0  0
   -4.2700   -0.8380   -7.2060 C   0  0  0  0  0  0  0  0  0  0  0  0
   -4.8990   -0.6640   -8.7760 Cl  0  0  0  0  0  0  0  0  0  0  0  0
   -4.1380   -2.0420   -5.1050 C   0  0  0  0  0  0  0  0  0  0  0  0
   -2.8370   -0.0480   -5.4310 C   0  0  0  0  0  0  0  0  0  0  0  0
   -3.3560    0.0930   -6.7220 C   0  0  0  0  0  0  0  0  0  0  0  0
   -4.6600   -1.9030   -6.3980 C   0  0  0  0  0  0  0  0  0  0  0  0
    0.9920    2.0040   -0.5700 C   0  0  0  0  0  0  0  0  0  0  0  0
   -1.8780   -2.1150   -0.3090 H   0  0  0  0  0  0  0  0  0  0  0  0
   -0.8190   -1.8590    1.4800 H   0  0  0  0  0  0  0  0  0  0  0  0
   -2.0480   -0.4550   -3.1870 H   0  0  0  0  0  0  0  0  0  0  0  0
    0.8530   -0.6370    3.1050 H   0  0  0  0  0  0  0  0  0  0  0  0
   -4.4490   -2.8730   -4.4900 H   0  0  0  0  0  0  0  0  0  0  0  0
   -2.1280    0.6790   -5.0630 H   0  0  0  0  0  0  0  0  0  0  0  0
   -3.0480    0.9220   -7.3420 H   0  0  0  0  0  0  0  0  0  0  0  0
   -5.3700   -2.6270   -6.7700 H   0  0  0  0  0  0  0  0  0  0  0  0
    0.4920    1.9590   -1.5380 H   0  0  0  0  0  0  0  0  0  0  0  0
    2.0710    1.9620   -0.7160 H   0  0  0  0  0  0  0  0  0  0  0  0
    0.7290    2.9350   -0.0680 H   0  0  0  0  0  0  0  0  0  0  0  0
  1  2  1  0  0  0  0
  1  5  2  0  0  0  0
  1  6  1  0  0  0  0
  2  3  1  0  0  0  0
  2 11  2  0  0  0  0
  3  4  1  0  0  0  0
  3 20  1  0  0  0  0
  4  7  1  0  0  0  0
  4  9  2  0  0  0  0
  5  8  1  0  0  0  0
  5 19  1  0  0  0  0
  6 10  2  0  0  0  0
  6 21  1  0  0  0  0
  7 12  1  0  0  0  0
  7 22  1  0  0  0  0
  8 10  1  0  0  0  0
 10 23  1  0  0  0  0
 12 15  1  0  0  0  0
 12 16  2  0  0  0  0
 13 14  1  0  0  0  0
 13 17  2  0  0  0  0
 13 18  1  0  0  0  0
 15 18  2  0  0  0  0
 15 24  1  0  0  0  0
 16 17  1  0  0  0  0
 16 25  1  0  0  0  0
 17 26  1  0  0  0  0
 18 27  1  0  0  0  0
 19 28  1  0  0  0  0
 19 29  1  0  0  0  0
 19 30  1  0  0  0  0
M  END
>  <$CLUSTER>
868

>  <INDEX>
559154

$$$$
Maybridge BTB 09051
  MOE2020           3D

 39 41  0  0  0  0  0  0  0  0999 V2000
   -0.1160   -0.1300    0.1100 C   0  0  0  0  0  0  0  0  0  0  0  0
    0.3430    1.1140    0.3170 C   0  0  0  0  0  0  0  0  0  0  0  0
    1.1760    1.7730   -0.7330 C   0  0  0  0  0  0  0  0  0  0  0  0
   -0.9150   -0.8530    1.0590 C   0  0  0  0  0  0  0  0  0  0  0  0
    0.9860   -0.2130   -2.1000 N   0  0  0  0  0  0  0  0  0  0  0  0
    1.4490    1.0430   -1.8820 N   0  0  0  0  0  0  0  0  0  0  0  0
    0.2520   -0.7620   -1.1860 C   0  0  0  0  0  0  0  0  0  0  0  0
   -0.4890   -1.9310    1.7340 N   0  0  0  0  0  0  0  0  0  0  0  0
   -2.2520   -0.5220    1.4060 C   0  0  0  0  0  0  0  0  0  0  0  0
   -2.6240   -1.4620    2.3350 C   0  0  0  0  0  0  0  0  0  0  0  0
   -1.5420   -2.2730    2.4930 N   0  0  0  0  0  0  0  0  0  0  0  0
    1.5880    2.9180   -0.5430 O   0  0  0  0  0  0  0  0  0  0  0  0
   -3.9040   -1.6410    3.0670 C   0  0  0  0  0  0  0  0  0  0  0  0
    0.1320    1.8710    1.4400 N   0  0  0  0  0  0  0  0  0  0  0  0
   -4.0870   -2.6950    3.9800 C   0  0  0  0  0  0  0  0  0  0  0  0
   -4.9740   -0.7530    2.8650 C   0  0  0  0  0  0  0  0  0  0  0  0
    2.2640    1.5860   -2.9570 C   0  0  0  0  0  0  0  0  0  0  0  0
   -0.2530   -2.1580   -1.4920 C   0  0  0  0  0  0  0  0  0  0  0  0
   -5.2970   -2.8530    4.6630 C   0  0  0  0  0  0  0  0  0  0  0  0
   -6.1830   -0.9130    3.5490 C   0  0  0  0  0  0  0  0  0  0  0  0
   -6.3440   -1.9630    4.4480 C   0  0  0  0  0  0  0  0  0  0  0  0
   -7.6340   -2.1350    5.1790 C   0  0  0  0  0  0  0  0  0  0  0  0
   -2.8470    0.2930    1.0220 H   0  0  0  0  0  0  0  0  0  0  0  0
   -1.5320   -3.0610    3.1250 H   0  0  0  0  0  0  0  0  0  0  0  0
   -0.4120    1.4990    2.2050 H   0  0  0  0  0  0  0  0  0  0  0  0
    0.5210    2.8010    1.5020 H   0  0  0  0  0  0  0  0  0  0  0  0
   -3.2810   -3.3920    4.1560 H   0  0  0  0  0  0  0  0  0  0  0  0
   -4.8610    0.0660    2.1700 H   0  0  0  0  0  0  0  0  0  0  0  0
    2.5890    2.5930   -2.6940 H   0  0  0  0  0  0  0  0  0  0  0  0
    1.6780    1.6220   -3.8750 H   0  0  0  0  0  0  0  0  0  0  0  0
    3.1370    0.9510   -3.1080 H   0  0  0  0  0  0  0  0  0  0  0  0
   -0.8560   -2.5170   -0.6580 H   0  0  0  0  0  0  0  0  0  0  0  0
    0.5950   -2.8260   -1.6420 H   0  0  0  0  0  0  0  0  0  0  0  0
   -0.8610   -2.1340   -2.3960 H   0  0  0  0  0  0  0  0  0  0  0  0
   -5.4190   -3.6690    5.3600 H   0  0  0  0  0  0  0  0  0  0  0  0
   -6.9940   -0.2200    3.3790 H   0  0  0  0  0  0  0  0  0  0  0  0
   -7.5680   -3.0050    5.8320 H   0  0  0  0  0  0  0  0  0  0  0  0
   -8.4420   -2.2790    4.4620 H   0  0  0  0  0  0  0  0  0  0  0  0
   -7.8340   -1.2460    5.7770 H   0  0  0  0  0  0  0  0  0  0  0  0
  1  2  2  0  0  0  0
  1  4  1  0  0  0  0
  1  7  1  0  0  0  0
  2  3  1  0  0  0  0
  2 14  1  0  0  0  0
  3  6  1  0  0  0  0
  3 12  2  0  0  0  0
  4  8  2  0  0  0  0
  4  9  1  0  0  0  0
  5  6  1  0  0  0  0
  5  7  2  0  0  0  0
  6 17  1  0  0  0  0
  7 18  1  0  0  0  0
  8 11  1  0  0  0  0
  9 10  2  0  0  0  0
  9 23  1  0  0  0  0
 10 11  1  0  0  0  0
 10 13  1  0  0  0  0
 11 24  1  0  0  0  0
 13 15  2  0  0  0  0
 13 16  1  0  0  0  0
 14 25  1  0  0  0  0
 14 26  1  0  0  0  0
 15 19  1  0  0  0  0
 15 27  1  0  0  0  0
 16 20  2  0  0  0  0
 16 28  1  0  0  0  0
 17 29  1  0  0  0  0
 17 30  1  0  0  0  0
 17 31  1  0  0  0  0
 18 32  1  0  0  0  0
 18 33  1  0  0  0  0
 18 34  1  0  0  0  0
 19 21  2  0  0  0  0
 19 35  1  0  0  0  0
 20 21  1  0  0  0  0
 20 36  1  0  0  0  0
 21 22  1  0  0  0  0
 22 37  1  0  0  0  0
 22 38  1  0  0  0  0
 22 39  1  0  0  0  0
M  END
>  <$CLUSTER>
869

>  <INDEX>
543561

$$$$
InterBioScreen STOCK4S-86333
  MOE2020           3D

 46 49  0  0  0  0  0  0  0  0999 V2000
   -0.2320    1.1310   -0.1890 N   0  0  0  0  0  0  0  0  0  0  0  0
   -0.1780   -0.2260   -0.4420 C   0  0  0  0  0  0  0  0  0  0  0  0
   -0.9970   -0.5010   -1.4410 N   0  0  0  0  0  0  0  0  0  0  0  0
   -1.1030    1.6410   -1.1170 C   0  0  0  0  0  0  0  0  0  0  0  0
   -1.5670    0.6720   -1.8720 N   0  0  0  0  0  0  0  0  0  0  0  0
   -4.2870    1.3710   -2.3810 N   0  0  0  0  0  0  0  0  0  0  0  0
   -4.0130    2.6350   -2.2490 C   0  0  0  0  0  0  0  0  0  0  0  0
   -5.0290    3.3440   -1.6890 N   0  0  0  0  0  0  0  0  0  0  0  0
   -5.5670    1.2500   -1.9010 C   0  0  0  0  0  0  0  0  0  0  0  0
   -6.0480    2.4600   -1.4670 C   0  0  0  0  0  0  0  0  0  0  0  0
   -1.5250    3.3170   -1.2260 S   0  0  0  0  0  0  0  0  0  0  0  0
    0.6090   -1.2100    0.2900 C   0  0  0  0  0  0  0  0  0  0  0  0
    0.4760    1.8490    0.8560 C   0  0  0  0  0  0  0  0  0  0  0  0
   -2.6890    3.3030   -2.6070 C   0  0  0  0  0  0  0  0  0  0  0  0
   -0.3070    1.8950    2.1570 C   0  0  0  0  0  0  0  0  0  0  0  0
   -0.0390   -2.1950    1.0470 C   0  0  0  0  0  0  0  0  0  0  0  0
    2.0080   -1.2120    0.2180 C   0  0  0  0  0  0  0  0  0  0  0  0
    0.1390    1.4600    3.3220 C   0  0  0  0  0  0  0  0  0  0  0  0
    2.0950   -3.1400    1.6740 C   0  0  0  0  0  0  0  0  0  0  0  0
    0.7030   -3.1530    1.7400 C   0  0  0  0  0  0  0  0  0  0  0  0
    2.7470   -2.1720    0.9120 C   0  0  0  0  0  0  0  0  0  0  0  0
    2.7120   -4.1380    2.3940 O   0  0  0  0  0  0  0  0  0  0  0  0
   -6.3870    0.1010   -1.8020 C   0  0  0  0  0  0  0  0  0  0  0  0
   -7.3320    2.6320   -0.9170 C   0  0  0  0  0  0  0  0  0  0  0  0
    4.1350   -4.1730    2.3580 C   0  0  0  0  0  0  0  0  0  0  0  0
   -7.6710    0.2450   -1.2610 C   0  0  0  0  0  0  0  0  0  0  0  0
   -8.1330    1.4890   -0.8260 C   0  0  0  0  0  0  0  0  0  0  0  0
   -5.0310    4.3320   -1.4780 H   0  0  0  0  0  0  0  0  0  0  0  0
    0.6560    2.8700    0.5190 H   0  0  0  0  0  0  0  0  0  0  0  0
    1.4290    1.3530    1.0380 H   0  0  0  0  0  0  0  0  0  0  0  0
   -2.8870    4.3320   -2.9080 H   0  0  0  0  0  0  0  0  0  0  0  0
   -2.2380    2.7620   -3.4390 H   0  0  0  0  0  0  0  0  0  0  0  0
   -1.3020    2.3140    2.1270 H   0  0  0  0  0  0  0  0  0  0  0  0
   -1.1180   -2.2130    1.0950 H   0  0  0  0  0  0  0  0  0  0  0  0
    2.5170   -0.4680   -0.3770 H   0  0  0  0  0  0  0  0  0  0  0  0
   -0.4860    1.5310    4.2000 H   0  0  0  0  0  0  0  0  0  0  0  0
    1.1280    1.0330    3.3960 H   0  0  0  0  0  0  0  0  0  0  0  0
    0.1980   -3.9050    2.3280 H   0  0  0  0  0  0  0  0  0  0  0  0
    3.8260   -2.1650    0.8580 H   0  0  0  0  0  0  0  0  0  0  0  0
   -6.0320   -0.8630   -2.1350 H   0  0  0  0  0  0  0  0  0  0  0  0
   -7.6810    3.5980   -0.5820 H   0  0  0  0  0  0  0  0  0  0  0  0
    4.4930   -5.0050    2.9650 H   0  0  0  0  0  0  0  0  0  0  0  0
    4.5320   -3.2380    2.7530 H   0  0  0  0  0  0  0  0  0  0  0  0
    4.4690   -4.3040    1.3290 H   0  0  0  0  0  0  0  0  0  0  0  0
   -8.3130   -0.6190   -1.1790 H   0  0  0  0  0  0  0  0  0  0  0  0
   -9.1270    1.5700   -0.4120 H   0  0  0  0  0  0  0  0  0  0  0  0
  1  2  1  0  0  0  0
  1  4  1  0  0  0  0
  1 13  1  0  0  0  0
  2  3  2  0  0  0  0
  2 12  1  0  0  0  0
  3  5  1  0  0  0  0
  4  5  2  0  0  0  0
  4 11  1  0  0  0  0
  6  7  2  0  0  0  0
  6  9  1  0  0  0  0
  7  8  1  0  0  0  0
  7 14  1  0  0  0  0
  8 10  1  0  0  0  0
  8 28  1  0  0  0  0
  9 10  2  0  0  0  0
  9 23  1  0  0  0  0
 10 24  1  0  0  0  0
 11 14  1  0  0  0  0
 12 16  2  0  0  0  0
 12 17  1  0  0  0  0
 13 15  1  0  0  0  0
 13 29  1  0  0  0  0
 13 30  1  0  0  0  0
 14 31  1  0  0  0  0
 14 32  1  0  0  0  0
 15 18  2  0  0  0  0
 15 33  1  0  0  0  0
 16 20  1  0  0  0  0
 16 34  1  0  0  0  0
 17 21  2  0  0  0  0
 17 35  1  0  0  0  0
 18 36  1  0  0  0  0
 18 37  1  0  0  0  0
 19 20  2  0  0  0  0
 19 21  1  0  0  0  0
 19 22  1  0  0  0  0
 20 38  1  0  0  0  0
 21 39  1  0  0  0  0
 22 25  1  0  0  0  0
 23 26  2  0  0  0  0
 23 40  1  0  0  0  0
 24 27  2  0  0  0  0
 24 41  1  0  0  0  0
 25 42  1  0  0  0  0
 25 43  1  0  0  0  0
 25 44  1  0  0  0  0
 26 27  1  0  0  0  0
 26 45  1  0  0  0  0
 27 46  1  0  0  0  0
M  END
>  <$CLUSTER>
870

>  <INDEX>
361954

$$$$
Chem T&I MARI0000695
  MOE2020           3D

 53 55  0  0  0  0  0  0  0  0999 V2000
   -0.6100   -1.5350    0.1980 N   0  3  0  0  0  0  0  0  0  0  0  0
   -0.4400   -0.1100    0.0810 C   0  0  0  0  0  0  0  0  0  0  0  0
   -1.5920    0.6740    0.2290 C   0  0  0  0  0  0  0  0  0  0  0  0
    0.8030    0.4580   -0.1640 C   0  0  0  0  0  0  0  0  0  0  0  0
    4.8700   -3.9870   -0.8040 C   0  0  0  0  0  0  0  0  0  0  0  0
    3.4210   -3.5510   -0.6130 C   0  0  0  0  0  0  0  0  0  0  0  0
   -1.4880    2.0590    0.1260 C   0  0  0  0  0  0  0  0  0  0  0  0
    0.8930    1.8540   -0.2650 C   0  0  0  0  0  0  0  0  0  0  0  0
   -0.2480    2.6470   -0.1210 C   0  0  0  0  0  0  0  0  0  0  0  0
    2.1110   -1.5810   -0.2610 N   0  0  0  0  0  0  0  0  0  0  0  0
   -0.5540   -2.0210    1.3390 O   0  5  0  0  0  0  0  0  0  0  0  0
    5.2990   -5.1470   -0.1350 C   0  0  0  0  0  0  0  0  0  0  0  0
   -0.9230   -2.1540   -0.8320 O   0  0  0  0  0  0  0  0  0  0  0  0
    3.3450   -2.1030   -0.4410 N   0  0  0  0  0  0  0  0  0  0  0  0
    2.0470   -0.2920   -0.3290 C   0  0  0  0  0  0  0  0  0  0  0  0
    4.4210   -5.7540    0.7260 O   0  0  0  0  0  0  0  0  0  0  0  0
    2.5060   -4.3290   -0.6120 O   0  0  0  0  0  0  0  0  0  0  0  0
    4.8570   -6.9380    1.3830 C   0  0  0  0  0  0  0  0  0  0  0  0
   -2.5520    2.9240    0.2540 O   0  0  0  0  0  0  0  0  0  0  0  0
   -0.2400    4.0310   -0.2070 O   0  0  0  0  0  0  0  0  0  0  0  0
    5.6850   -3.3070   -1.6860 C   0  0  0  0  0  0  0  0  0  0  0  0
    3.8090   -7.4860    2.2820 C   0  0  0  0  0  0  0  0  0  0  0  0
    6.6100   -5.5820   -0.3620 C   0  0  0  0  0  0  0  0  0  0  0  0
   -3.8310    2.3530    0.5050 C   0  0  0  0  0  0  0  0  0  0  0  0
    1.0070    4.6690   -0.4590 C   0  0  0  0  0  0  0  0  0  0  0  0
    2.8450   -8.3740    1.7870 C   0  0  0  0  0  0  0  0  0  0  0  0
    3.7140   -7.0440    3.6080 C   0  0  0  0  0  0  0  0  0  0  0  0
    6.9870   -3.7550   -1.9020 C   0  0  0  0  0  0  0  0  0  0  0  0
    7.4480   -4.8890   -1.2410 C   0  0  0  0  0  0  0  0  0  0  0  0
    1.8320   -8.8510    2.6210 C   0  0  0  0  0  0  0  0  0  0  0  0
    2.6990   -7.5230    4.4400 C   0  0  0  0  0  0  0  0  0  0  0  0
    1.7590   -8.4270    3.9460 C   0  0  0  0  0  0  0  0  0  0  0  0
   -2.5480    0.2100    0.4200 H   0  0  0  0  0  0  0  0  0  0  0  0
    1.8490    2.3180   -0.4550 H   0  0  0  0  0  0  0  0  0  0  0  0
    4.1710   -1.5220   -0.4560 H   0  0  0  0  0  0  0  0  0  0  0  0
    2.9570    0.2580   -0.5170 H   0  0  0  0  0  0  0  0  0  0  0  0
    5.7440   -6.7080    1.9740 H   0  0  0  0  0  0  0  0  0  0  0  0
    5.1050   -7.6880    0.6320 H   0  0  0  0  0  0  0  0  0  0  0  0
    5.3170   -2.4340   -2.2050 H   0  0  0  0  0  0  0  0  0  0  0  0
    6.9780   -6.4610    0.1470 H   0  0  0  0  0  0  0  0  0  0  0  0
   -4.5740    3.1470    0.5830 H   0  0  0  0  0  0  0  0  0  0  0  0
   -3.8010    1.7900    1.4380 H   0  0  0  0  0  0  0  0  0  0  0  0
   -4.0980    1.6850   -0.3140 H   0  0  0  0  0  0  0  0  0  0  0  0
    0.8610    5.7480   -0.5000 H   0  0  0  0  0  0  0  0  0  0  0  0
    1.4080    4.3200   -1.4110 H   0  0  0  0  0  0  0  0  0  0  0  0
    1.7070    4.4270    0.3410 H   0  0  0  0  0  0  0  0  0  0  0  0
    2.8860   -8.6910    0.7550 H   0  0  0  0  0  0  0  0  0  0  0  0
    4.4290   -6.3300    3.9890 H   0  0  0  0  0  0  0  0  0  0  0  0
    7.6370   -3.2230   -2.5810 H   0  0  0  0  0  0  0  0  0  0  0  0
    8.4570   -5.2350   -1.4070 H   0  0  0  0  0  0  0  0  0  0  0  0
    1.1030   -9.5500    2.2380 H   0  0  0  0  0  0  0  0  0  0  0  0
    2.6420   -7.1930    5.4670 H   0  0  0  0  0  0  0  0  0  0  0  0
    0.9750   -8.7980    4.5900 H   0  0  0  0  0  0  0  0  0  0  0  0
  1  2  1  0  0  0  0
  1 11  1  0  0  0  0
  1 13  2  0  0  0  0
  2  3  2  0  0  0  0
  2  4  1  0  0  0  0
  3  7  1  0  0  0  0
  3 33  1  0  0  0  0
  4  8  2  0  0  0  0
  4 15  1  0  0  0  0
  5  6  1  0  0  0  0
  5 12  2  0  0  0  0
  5 21  1  0  0  0  0
  6 14  1  0  0  0  0
  6 17  2  0  0  0  0
  7  9  2  0  0  0  0
  7 19  1  0  0  0  0
  8  9  1  0  0  0  0
  8 34  1  0  0  0  0
  9 20  1  0  0  0  0
 10 14  1  0  0  0  0
 10 15  2  0  0  0  0
 12 16  1  0  0  0  0
 12 23  1  0  0  0  0
 14 35  1  0  0  0  0
 15 36  1  0  0  0  0
 16 18  1  0  0  0  0
 18 22  1  0  0  0  0
 18 37  1  0  0  0  0
 18 38  1  0  0  0  0
 19 24  1  0  0  0  0
 20 25  1  0  0  0  0
 21 28  2  0  0  0  0
 21 39  1  0  0  0  0
 22 26  2  0  0  0  0
 22 27  1  0  0  0  0
 23 29  2  0  0  0  0
 23 40  1  0  0  0  0
 24 41  1  0  0  0  0
 24 42  1  0  0  0  0
 24 43  1  0  0  0  0
 25 44  1  0  0  0  0
 25 45  1  0  0  0  0
 25 46  1  0  0  0  0
 26 30  1  0  0  0  0
 26 47  1  0  0  0  0
 27 31  2  0  0  0  0
 27 48  1  0  0  0  0
 28 29  1  0  0  0  0
 28 49  1  0  0  0  0
 29 50  1  0  0  0  0
 30 32  2  0  0  0  0
 30 51  1  0  0  0  0
 31 32  1  0  0  0  0
 31 52  1  0  0  0  0
 32 53  1  0  0  0  0
M  CHG  1   1   1
M  CHG  1  11  -1
M  END
>  <$CLUSTER>
871

>  <INDEX>
560384

$$$$
Maybridge ML 00307
  MOE2020           3D

 32 33  0  0  0  0  0  0  0  0999 V2000
   -0.7780   -0.1430   -2.2720 C   0  0  0  0  0  0  0  0  0  0  0  0
    0.1090    0.2820   -0.0900 N   0  0  0  0  0  0  0  0  0  0  0  0
   -1.9330   -0.8900   -4.3070 N   0  0  0  0  0  0  0  0  0  0  0  0
   -1.6810   -0.9570   -2.9100 N   0  0  0  0  0  0  0  0  0  0  0  0
   -0.7480   -0.4540   -0.8460 N   0  0  0  0  0  0  0  0  0  0  0  0
   -0.1380    0.6800   -2.8520 O   0  0  0  0  0  0  0  0  0  0  0  0
    0.2540   -0.1830    1.1150 C   0  0  0  0  0  0  0  0  0  0  0  0
   -2.9240   -1.5210   -4.7240 C   0  0  0  0  0  0  0  0  0  0  0  0
    1.2010   -0.1220    3.3150 N   0  0  0  0  0  0  0  0  0  0  0  0
   -4.3920   -2.2240   -6.5070 N   0  0  0  0  0  0  0  0  0  0  0  0
   -3.2660   -1.4790   -6.1830 C   0  0  0  0  0  0  0  0  0  0  0  0
    1.1640    0.4980    2.0920 C   0  0  0  0  0  0  0  0  0  0  0  0
    2.0100    0.4540    4.2380 C   0  0  0  0  0  0  0  0  0  0  0  0
   -4.7480   -2.2210   -7.8160 C   0  0  0  0  0  0  0  0  0  0  0  0
    1.8760    1.6250    1.7650 C   0  0  0  0  0  0  0  0  0  0  0  0
   -2.5370   -0.7710   -7.1020 C   0  0  0  0  0  0  0  0  0  0  0  0
    2.7680    1.5950    4.0000 C   0  0  0  0  0  0  0  0  0  0  0  0
   -4.0590   -1.5290   -8.8050 C   0  0  0  0  0  0  0  0  0  0  0  0
    2.6970    2.1870    2.7410 C   0  0  0  0  0  0  0  0  0  0  0  0
   -2.9350   -0.7920   -8.4380 C   0  0  0  0  0  0  0  0  0  0  0  0
   -2.1900   -1.6350   -2.3610 H   0  0  0  0  0  0  0  0  0  0  0  0
   -1.3310   -1.1750   -0.4440 H   0  0  0  0  0  0  0  0  0  0  0  0
   -0.2860   -1.0690    1.4150 H   0  0  0  0  0  0  0  0  0  0  0  0
   -3.5320   -2.0940   -4.0390 H   0  0  0  0  0  0  0  0  0  0  0  0
    2.0690    0.0000    5.2160 H   0  0  0  0  0  0  0  0  0  0  0  0
   -5.6190   -2.7900   -8.1070 H   0  0  0  0  0  0  0  0  0  0  0  0
    1.8020    2.0630    0.7810 H   0  0  0  0  0  0  0  0  0  0  0  0
   -1.6690   -0.2060   -6.7970 H   0  0  0  0  0  0  0  0  0  0  0  0
    3.3970    2.0120    4.7730 H   0  0  0  0  0  0  0  0  0  0  0  0
   -4.3870   -1.5620   -9.8330 H   0  0  0  0  0  0  0  0  0  0  0  0
    3.2730    3.0740    2.5230 H   0  0  0  0  0  0  0  0  0  0  0  0
   -2.3770   -0.2420   -9.1820 H   0  0  0  0  0  0  0  0  0  0  0  0
  1  4  1  0  0  0  0
  1  5  1  0  0  0  0
  1  6  2  0  0  0  0
  2  5  1  0  0  0  0
  2  7  2  0  0  0  0
  3  4  1  0  0  0  0
  3  8  2  0  0  0  0
  4 21  1  0  0  0  0
  5 22  1  0  0  0  0
  7 12  1  0  0  0  0
  7 23  1  0  0  0  0
  8 11  1  0  0  0  0
  8 24  1  0  0  0  0
  9 12  2  0  0  0  0
  9 13  1  0  0  0  0
 10 11  2  0  0  0  0
 10 14  1  0  0  0  0
 11 16  1  0  0  0  0
 12 15  1  0  0  0  0
 13 17  2  0  0  0  0
 13 25  1  0  0  0  0
 14 18  2  0  0  0  0
 14 26  1  0  0  0  0
 15 19  2  0  0  0  0
 15 27  1  0  0  0  0
 16 20  2  0  0  0  0
 16 28  1  0  0  0  0
 17 19  1  0  0  0  0
 17 29  1  0  0  0  0
 18 20  1  0  0  0  0
 18 30  1  0  0  0  0
 19 31  1  0  0  0  0
 20 32  1  0  0  0  0
M  END
>  <$CLUSTER>
872

>  <INDEX>
560500

$$$$
Maybridge MWP 00028
  MOE2020           3D

 31 33  0  0  0  0  0  0  0  0999 V2000
   -1.9370   -0.4810    0.0430 N   0  0  0  0  0  0  0  0  0  0  0  0
    4.3720    1.1480   -0.0030 C   0  0  0  0  0  0  0  0  0  0  0  0
    5.7610    1.1810   -0.5940 C   0  0  0  0  0  0  0  0  0  0  0  0
   -1.9790    0.1520    1.1950 C   0  0  0  0  0  0  0  0  0  0  0  0
   -0.8020    0.6950    1.6140 O   0  0  0  0  0  0  0  0  0  0  0  0
    0.0740    0.3680    0.6180 C   0  0  0  0  0  0  0  0  0  0  0  0
   -0.6240   -0.3510   -0.3410 C   0  0  0  0  0  0  0  0  0  0  0  0
    3.4930    0.4570   -0.8260 N   0  0  0  0  0  0  0  0  0  0  0  0
    1.4250    0.6810    0.5440 C   0  0  0  0  0  0  0  0  0  0  0  0
    2.0930    0.2190   -0.5950 C   0  0  0  0  0  0  0  0  0  0  0  0
    6.4590    2.3860   -0.7170 C   0  0  0  0  0  0  0  0  0  0  0  0
    4.1350    1.6870    1.0720 O   0  0  0  0  0  0  0  0  0  0  0  0
    0.0590   -0.8070   -1.4770 C   0  0  0  0  0  0  0  0  0  0  0  0
    1.4260   -0.5100   -1.5870 C   0  0  0  0  0  0  0  0  0  0  0  0
    5.7720    3.9280   -0.3510 Cl  0  0  0  0  0  0  0  0  0  0  0  0
    6.3670   -0.0250   -0.9360 C   0  0  0  0  0  0  0  0  0  0  0  0
   -3.1320    0.3770    2.0630 C   0  0  0  0  0  0  0  0  0  0  0  0
    7.7680    2.3700   -1.2150 C   0  0  0  0  0  0  0  0  0  0  0  0
    7.6710   -0.0340   -1.4310 C   0  0  0  0  0  0  0  0  0  0  0  0
    8.3720    1.1630   -1.5690 C   0  0  0  0  0  0  0  0  0  0  0  0
    3.8780    0.0800   -1.6800 H   0  0  0  0  0  0  0  0  0  0  0  0
    1.9280    1.2450    1.3160 H   0  0  0  0  0  0  0  0  0  0  0  0
   -0.4510   -1.3700   -2.2440 H   0  0  0  0  0  0  0  0  0  0  0  0
    1.9740   -0.8500   -2.4530 H   0  0  0  0  0  0  0  0  0  0  0  0
    5.8280   -0.9530   -0.8180 H   0  0  0  0  0  0  0  0  0  0  0  0
   -4.0110   -0.1000    1.6300 H   0  0  0  0  0  0  0  0  0  0  0  0
   -3.3100    1.4480    2.1600 H   0  0  0  0  0  0  0  0  0  0  0  0
   -2.9350   -0.0490    3.0470 H   0  0  0  0  0  0  0  0  0  0  0  0
    8.3120    3.2960   -1.3260 H   0  0  0  0  0  0  0  0  0  0  0  0
    8.1370   -0.9680   -1.7070 H   0  0  0  0  0  0  0  0  0  0  0  0
    9.3830    1.1560   -1.9500 H   0  0  0  0  0  0  0  0  0  0  0  0
  1  4  2  0  0  0  0
  1  7  1  0  0  0  0
  2  3  1  0  0  0  0
  2  8  1  0  0  0  0
  2 12  2  0  0  0  0
  3 11  2  0  0  0  0
  3 16  1  0  0  0  0
  4  5  1  0  0  0  0
  4 17  1  0  0  0  0
  5  6  1  0  0  0  0
  6  7  1  0  0  0  0
  6  9  2  0  0  0  0
  7 13  2  0  0  0  0
  8 10  1  0  0  0  0
  8 21  1  0  0  0  0
  9 10  1  0  0  0  0
  9 22  1  0  0  0  0
 10 14  2  0  0  0  0
 11 15  1  0  0  0  0
 11 18  1  0  0  0  0
 13 14  1  0  0  0  0
 13 23  1  0  0  0  0
 14 24  1  0  0  0  0
 16 19  2  0  0  0  0
 16 25  1  0  0  0  0
 17 26  1  0  0  0  0
 17 27  1  0  0  0  0
 17 28  1  0  0  0  0
 18 20  2  0  0  0  0
 18 29  1  0  0  0  0
 19 20  1  0  0  0  0
 19 30  1  0  0  0  0
 20 31  1  0  0  0  0
M  END
>  <$CLUSTER>
873

>  <INDEX>
560582

$$$$
Maybridge MWP 00552
  MOE2020           3D

 24 25  0  0  0  0  0  0  0  0999 V2000
   -0.7000    2.2650    0.5000 C   0  0  0  0  0  0  0  0  0  0  0  0
   -1.1550    3.0780   -0.9240 S   0  0  0  0  0  0  0  0  0  0  0  0
   -0.8300    3.0780    1.6290 C   0  0  0  0  0  0  0  0  0  0  0  0
   -1.3130    4.3790    1.2660 C   0  0  0  0  0  0  0  0  0  0  0  0
   -1.5300    4.5110   -0.0850 C   0  0  0  0  0  0  0  0  0  0  0  0
   -0.2210    0.8320    0.4790 C   0  0  0  0  0  0  0  0  0  0  0  0
    0.6820   -2.3200   -0.8010 N   0  0  0  0  0  0  0  0  0  0  0  0
    0.3090   -1.2150   -0.8160 C   0  0  0  0  0  0  0  0  0  0  0  0
   -1.5990    5.5370    2.0810 C   0  0  0  0  0  0  0  0  0  0  0  0
   -2.0100    5.7130   -0.6830 C   0  0  0  0  0  0  0  0  0  0  0  0
    0.0980    0.2620    1.5250 O   0  0  0  0  0  0  0  0  0  0  0  0
   -0.1670    0.1750   -0.8860 C   0  0  0  0  0  0  0  0  0  0  0  0
   -2.0700    6.7230    1.5110 C   0  0  0  0  0  0  0  0  0  0  0  0
   -0.5210    2.6940    3.0390 C   0  0  0  0  0  0  0  0  0  0  0  0
   -2.2730    6.8080    0.1420 C   0  0  0  0  0  0  0  0  0  0  0  0
   -2.3910    8.0590    2.5200 Cl  0  0  0  0  0  0  0  0  0  0  0  0
   -1.4460    5.4850    3.1490 H   0  0  0  0  0  0  0  0  0  0  0  0
   -2.1670    5.7750   -1.7500 H   0  0  0  0  0  0  0  0  0  0  0  0
    0.5080    0.7450   -1.5240 H   0  0  0  0  0  0  0  0  0  0  0  0
   -1.1670    0.1820   -1.3190 H   0  0  0  0  0  0  0  0  0  0  0  0
   -0.1710    1.6620    3.0660 H   0  0  0  0  0  0  0  0  0  0  0  0
   -1.4210    2.7890    3.6470 H   0  0  0  0  0  0  0  0  0  0  0  0
    0.2540    3.3510    3.4330 H   0  0  0  0  0  0  0  0  0  0  0  0
   -2.6370    7.7290   -0.2890 H   0  0  0  0  0  0  0  0  0  0  0  0
  1  2  1  0  0  0  0
  1  3  2  0  0  0  0
  1  6  1  0  0  0  0
  2  5  1  0  0  0  0
  3  4  1  0  0  0  0
  3 14  1  0  0  0  0
  4  5  2  0  0  0  0
  4  9  1  0  0  0  0
  5 10  1  0  0  0  0
  6 11  2  0  0  0  0
  6 12  1  0  0  0  0
  7  8  3  0  0  0  0
  8 12  1  0  0  0  0
  9 13  2  0  0  0  0
  9 17  1  0  0  0  0
 10 15  2  0  0  0  0
 10 18  1  0  0  0  0
 12 19  1  0  0  0  0
 12 20  1  0  0  0  0
 13 15  1  0  0  0  0
 13 16  1  0  0  0  0
 14 21  1  0  0  0  0
 14 22  1  0  0  0  0
 14 23  1  0  0  0  0
 15 24  1  0  0  0  0
M  END
>  <$CLUSTER>
874

>  <INDEX>
560675

$$$$
Chembridge 9008758
  MOE2020           3D

 43 45  0  0  0  0  0  0  0  0999 V2000
   -5.2180   -1.6190    4.1240 N   0  0  0  0  0  0  0  0  0  0  0  0
   -6.2180   -1.8030    5.0320 C   0  0  0  0  0  0  0  0  0  0  0  0
   -4.8880   -0.3620    4.3280 C   0  0  0  0  0  0  0  0  0  0  0  0
   -6.5230   -0.7410    5.7800 N   0  0  0  0  0  0  0  0  0  0  0  0
   -5.6330    0.2310    5.3120 O   0  0  0  0  0  0  0  0  0  0  0  0
   -6.8950   -3.1050    5.1520 C   0  0  0  0  0  0  0  0  0  0  0  0
   -3.8640    0.4680    3.6680 C   0  0  0  0  0  0  0  0  0  0  0  0
   -7.9240   -3.2990    6.0860 C   0  0  0  0  0  0  0  0  0  0  0  0
   -8.5620   -4.5380    6.1930 C   0  0  0  0  0  0  0  0  0  0  0  0
   -8.1810   -5.5960    5.3720 C   0  0  0  0  0  0  0  0  0  0  0  0
   -3.0850   -0.1000    2.6600 C   0  0  0  0  0  0  0  0  0  0  0  0
   -6.5200   -4.1790    4.3310 C   0  0  0  0  0  0  0  0  0  0  0  0
   -7.1610   -5.4160    4.4410 C   0  0  0  0  0  0  0  0  0  0  0  0
    0.2380   -0.2140   -0.6590 C   0  0  0  0  0  0  0  0  0  0  0  0
    1.5450   -0.4970   -0.6990 C   0  0  0  0  0  0  0  0  0  0  0  0
   -2.1020    0.6550    2.0090 C   0  0  0  0  0  0  0  0  0  0  0  0
   -9.5840   -4.8000    7.0880 O   0  0  0  0  0  0  0  0  0  0  0  0
   -8.8660   -6.7760    5.5490 O   0  0  0  0  0  0  0  0  0  0  0  0
   -1.4010   -0.0140    1.0380 O   0  0  0  0  0  0  0  0  0  0  0  0
   -3.6680    1.7980    4.0330 C   0  0  0  0  0  0  0  0  0  0  0  0
   -2.6920    2.5560    3.3900 C   0  0  0  0  0  0  0  0  0  0  0  0
   -0.3890    0.6990    0.3410 C   0  0  0  0  0  0  0  0  0  0  0  0
   -1.9090    1.9880    2.3800 C   0  0  0  0  0  0  0  0  0  0  0  0
  -10.0000   -3.7430    7.9440 C   0  0  0  0  0  0  0  0  0  0  0  0
   -8.5010   -7.8770    4.7260 C   0  0  0  0  0  0  0  0  0  0  0  0
   -8.2260   -2.4840    6.7280 H   0  0  0  0  0  0  0  0  0  0  0  0
   -3.2410   -1.1310    2.3790 H   0  0  0  0  0  0  0  0  0  0  0  0
   -5.7290   -4.0490    3.6070 H   0  0  0  0  0  0  0  0  0  0  0  0
   -6.8640   -6.2350    3.8020 H   0  0  0  0  0  0  0  0  0  0  0  0
   -0.4030   -0.6750   -1.3960 H   0  0  0  0  0  0  0  0  0  0  0  0
    1.9290   -1.1680   -1.4530 H   0  0  0  0  0  0  0  0  0  0  0  0
    2.2160   -0.0540    0.0220 H   0  0  0  0  0  0  0  0  0  0  0  0
   -4.2710    2.2400    4.8120 H   0  0  0  0  0  0  0  0  0  0  0  0
   -2.5390    3.5870    3.6730 H   0  0  0  0  0  0  0  0  0  0  0  0
   -0.8290    1.5550   -0.1700 H   0  0  0  0  0  0  0  0  0  0  0  0
    0.3670    1.0460    1.0460 H   0  0  0  0  0  0  0  0  0  0  0  0
   -1.1540    2.5810    1.8860 H   0  0  0  0  0  0  0  0  0  0  0  0
  -10.8060   -4.0940    8.5890 H   0  0  0  0  0  0  0  0  0  0  0  0
  -10.3540   -2.9060    7.3420 H   0  0  0  0  0  0  0  0  0  0  0  0
   -9.1590   -3.4190    8.5570 H   0  0  0  0  0  0  0  0  0  0  0  0
   -9.1220   -8.7380    4.9740 H   0  0  0  0  0  0  0  0  0  0  0  0
   -7.4530   -8.1240    4.8940 H   0  0  0  0  0  0  0  0  0  0  0  0
   -8.6490   -7.6130    3.6790 H   0  0  0  0  0  0  0  0  0  0  0  0
  1  2  1  0  0  0  0
  1  3  2  0  0  0  0
  2  4  2  0  0  0  0
  2  6  1  0  0  0  0
  3  5  1  0  0  0  0
  3  7  1  0  0  0  0
  4  5  1  0  0  0  0
  6  8  1  0  0  0  0
  6 12  2  0  0  0  0
  7 11  2  0  0  0  0
  7 20  1  0  0  0  0
  8  9  2  0  0  0  0
  8 26  1  0  0  0  0
  9 10  1  0  0  0  0
  9 17  1  0  0  0  0
 10 13  2  0  0  0  0
 10 18  1  0  0  0  0
 11 16  1  0  0  0  0
 11 27  1  0  0  0  0
 12 13  1  0  0  0  0
 12 28  1  0  0  0  0
 13 29  1  0  0  0  0
 14 15  2  0  0  0  0
 14 22  1  0  0  0  0
 14 30  1  0  0  0  0
 15 31  1  0  0  0  0
 15 32  1  0  0  0  0
 16 19  1  0  0  0  0
 16 23  2  0  0  0  0
 17 24  1  0  0  0  0
 18 25  1  0  0  0  0
 19 22  1  0  0  0  0
 20 21  2  0  0  0  0
 20 33  1  0  0  0  0
 21 23  1  0  0  0  0
 21 34  1  0  0  0  0
 22 35  1  0  0  0  0
 22 36  1  0  0  0  0
 23 37  1  0  0  0  0
 24 38  1  0  0  0  0
 24 39  1  0  0  0  0
 24 40  1  0  0  0  0
 25 41  1  0  0  0  0
 25 42  1  0  0  0  0
 25 43  1  0  0  0  0
M  END
>  <$CLUSTER>
875

>  <INDEX>
109047

$$$$
Nanosyn NS28381
  MOE2020           3D

 33 32  0  0  1  0  0  0  0  0999 V2000
   -0.0800    0.6030    0.4630 C   0  0  0  0  0  0  0  0  0  0  0  0
   -1.2230    1.4980   -0.0440 C   0  0  0  0  0  0  0  0  0  0  0  0
    0.0810   -0.6100   -0.4690 C   0  0  0  0  0  0  0  0  0  0  0  0
   -0.4070    0.1230    1.8870 C   0  0  0  0  0  0  0  0  0  0  0  0
   -2.4610    0.8950   -0.1180 N   0  0  0  0  0  0  0  0  0  0  0  0
   -1.0580    2.6760   -0.3760 O   0  0  0  0  0  0  0  0  0  0  0  0
    1.0830   -1.4340   -0.0600 F   0  0  0  0  0  0  0  0  0  0  0  0
    0.3720   -0.2350   -1.7430 F   0  0  0  0  0  0  0  0  0  0  0  0
    0.5740   -0.6770    2.3930 F   0  0  0  0  0  0  0  0  0  0  0  0
   -1.5600   -0.6040    1.9280 F   0  0  0  0  0  0  0  0  0  0  0  0
   -0.5610    1.1540    2.7580 F   0  0  0  0  0  0  0  0  0  0  0  0
   -1.0510   -1.3600   -0.5250 F   0  0  0  0  0  0  0  0  0  0  0  0
    1.2260    1.4140    0.4900 C   0  0  0  0  0  0  0  0  0  0  0  0
   -3.6750    1.5060   -0.5480 C   0  0  3  0  0  0  0  0  0  0  0  0
   -4.6010    0.4880   -1.2040 C   0  0  0  0  0  0  0  0  0  0  0  0
    1.2890    2.6590    1.3500 C   0  0  0  0  0  0  0  0  0  0  0  0
   -4.3640    2.1970    0.6240 C   0  0  0  0  0  0  0  0  0  0  0  0
   -5.8740    1.0470   -1.8090 C   0  0  0  0  0  0  0  0  0  0  0  0
   -2.5130   -0.0750    0.1600 H   0  0  0  0  0  0  0  0  0  0  0  0
    1.4350    1.7210   -0.5350 H   0  0  0  0  0  0  0  0  0  0  0  0
    2.0130    0.7440    0.8360 H   0  0  0  0  0  0  0  0  0  0  0  0
   -3.4320    2.2590   -1.2970 H   0  0  0  0  0  0  0  0  0  0  0  0
   -4.8840   -0.2430   -0.4470 H   0  0  0  0  0  0  0  0  0  0  0  0
   -4.0430   -0.0080   -1.9980 H   0  0  0  0  0  0  0  0  0  0  0  0
    0.5140    3.3580    1.0350 H   0  0  0  0  0  0  0  0  0  0  0  0
    2.2670    3.1270    1.2410 H   0  0  0  0  0  0  0  0  0  0  0  0
    1.1310    2.3880    2.3940 H   0  0  0  0  0  0  0  0  0  0  0  0
   -4.6150    1.4580    1.3850 H   0  0  0  0  0  0  0  0  0  0  0  0
   -5.2750    2.6830    0.2750 H   0  0  0  0  0  0  0  0  0  0  0  0
   -3.6940    2.9440    1.0500 H   0  0  0  0  0  0  0  0  0  0  0  0
   -6.4530    1.5500   -1.0350 H   0  0  0  0  0  0  0  0  0  0  0  0
   -6.4630    0.2330   -2.2320 H   0  0  0  0  0  0  0  0  0  0  0  0
   -5.6210    1.7590   -2.5940 H   0  0  0  0  0  0  0  0  0  0  0  0
  1  2  1  0  0  0  0
  1  3  1  0  0  0  0
  1  4  1  0  0  0  0
  1 13  1  0  0  0  0
  2  5  1  0  0  0  0
  2  6  2  0  0  0  0
  3  7  1  0  0  0  0
  3  8  1  0  0  0  0
  3 12  1  0  0  0  0
  4  9  1  0  0  0  0
  4 10  1  0  0  0  0
  4 11  1  0  0  0  0
  5 14  1  0  0  0  0
  5 19  1  0  0  0  0
 13 16  1  0  0  0  0
 13 20  1  0  0  0  0
 13 21  1  0  0  0  0
 14 15  1  0  0  0  0
 14 17  1  0  0  0  0
 14 22  1  0  0  0  0
 15 18  1  0  0  0  0
 15 23  1  0  0  0  0
 15 24  1  0  0  0  0
 16 25  1  0  0  0  0
 16 26  1  0  0  0  0
 16 27  1  0  0  0  0
 17 28  1  0  0  0  0
 17 29  1  0  0  0  0
 17 30  1  0  0  0  0
 18 31  1  0  0  0  0
 18 32  1  0  0  0  0
 18 33  1  0  0  0  0
M  END
>  <$CLUSTER>
876

>  <INDEX>
563593

$$$$
Asinex ASN 03271999
  MOE2020           3D

 43 45  0  0  1  0  0  0  0  0999 V2000
    0.1230   -0.1120    0.0080 C   0  0  0  0  0  0  0  0  0  0  0  0
   -0.5280   -0.9310   -1.0500 C   0  0  3  0  0  0  0  0  0  0  0  0
    1.5160    0.5210    1.4830 N   0  0  0  0  0  0  0  0  0  0  0  0
    1.2760   -0.4810    0.6000 N   0  0  0  0  0  0  0  0  0  0  0  0
    0.5250    1.4420    1.4010 N   0  0  0  0  0  0  0  0  0  0  0  0
   -1.9110   -1.4170   -0.6130 C   0  0  0  0  0  0  0  0  0  0  0  0
   -6.6870   -3.3300    1.2020 C   0  0  0  0  0  0  0  0  0  0  0  0
   -0.3760    1.0550    0.4630 N   0  5  0  0  0  0  0  0  0  0  0  0
   -1.8690   -2.3730    0.3740 N   0  0  0  0  0  0  0  0  0  0  0  0
   -5.2270   -3.5530    1.4700 C   0  0  0  0  0  0  0  0  0  0  0  0
   -0.6100   -0.1730   -2.3760 C   0  0  0  0  0  0  0  0  0  0  0  0
   -2.9590   -0.9720   -1.0760 O   0  0  0  0  0  0  0  0  0  0  0  0
   -2.8920   -3.0600    1.0370 C   0  0  0  0  0  0  0  0  0  0  0  0
   -4.2460   -2.8380    0.7730 C   0  0  0  0  0  0  0  0  0  0  0  0
    0.7210    0.2040   -2.9890 C   0  0  0  0  0  0  0  0  0  0  0  0
   -7.3300   -2.9300    2.3330 F   0  0  0  0  0  0  0  0  0  0  0  0
   -7.2860   -4.4840    0.7990 F   0  0  0  0  0  0  0  0  0  0  0  0
   -6.9660   -2.3980    0.2480 F   0  0  0  0  0  0  0  0  0  0  0  0
    1.3820   -0.6970   -3.8220 C   0  0  0  0  0  0  0  0  0  0  0  0
    2.6360   -0.3730   -4.3420 C   0  0  0  0  0  0  0  0  0  0  0  0
    3.1740   -1.3310   -5.1770 O   0  0  0  0  0  0  0  0  0  0  0  0
   -4.8650   -4.4930    2.4320 C   0  0  0  0  0  0  0  0  0  0  0  0
   -3.5190   -4.7200    2.7020 C   0  0  0  0  0  0  0  0  0  0  0  0
    2.5930    1.7200   -3.1440 C   0  0  0  0  0  0  0  0  0  0  0  0
   -2.5380   -4.0090    2.0090 C   0  0  0  0  0  0  0  0  0  0  0  0
    1.3390    1.3980   -2.6230 C   0  0  0  0  0  0  0  0  0  0  0  0
    3.2390    0.8360   -4.0030 C   0  0  0  0  0  0  0  0  0  0  0  0
    4.4580   -1.0570   -5.7260 C   0  0  0  0  0  0  0  0  0  0  0  0
    0.0990   -1.8090   -1.2060 H   0  0  0  0  0  0  0  0  0  0  0  0
   -0.9370   -2.6230    0.6730 H   0  0  0  0  0  0  0  0  0  0  0  0
   -1.1740    0.7440   -2.2050 H   0  0  0  0  0  0  0  0  0  0  0  0
   -1.1440   -0.8000   -3.0900 H   0  0  0  0  0  0  0  0  0  0  0  0
   -4.5370   -2.1120    0.0280 H   0  0  0  0  0  0  0  0  0  0  0  0
    0.9240   -1.6450   -4.0650 H   0  0  0  0  0  0  0  0  0  0  0  0
   -5.6260   -5.0430    2.9660 H   0  0  0  0  0  0  0  0  0  0  0  0
   -3.2330   -5.4470    3.4480 H   0  0  0  0  0  0  0  0  0  0  0  0
    3.0630    2.6560   -2.8800 H   0  0  0  0  0  0  0  0  0  0  0  0
   -1.4950   -4.1910    2.2230 H   0  0  0  0  0  0  0  0  0  0  0  0
    0.8480    2.0730   -1.9370 H   0  0  0  0  0  0  0  0  0  0  0  0
    4.2080    1.0880   -4.4070 H   0  0  0  0  0  0  0  0  0  0  0  0
    4.7660   -1.8870   -6.3620 H   0  0  0  0  0  0  0  0  0  0  0  0
    5.1790   -0.9320   -4.9180 H   0  0  0  0  0  0  0  0  0  0  0  0
    4.4130   -0.1430   -6.3180 H   0  0  0  0  0  0  0  0  0  0  0  0
  1  2  1  0  0  0  0
  1  4  2  0  0  0  0
  1  8  1  0  0  0  0
  2  6  1  0  0  0  0
  2 11  1  0  0  0  0
  2 29  1  0  0  0  0
  3  4  1  0  0  0  0
  3  5  2  0  0  0  0
  5  8  1  0  0  0  0
  6  9  1  0  0  0  0
  6 12  2  0  0  0  0
  7 10  1  0  0  0  0
  7 16  1  0  0  0  0
  7 17  1  0  0  0  0
  7 18  1  0  0  0  0
  9 13  1  0  0  0  0
  9 30  1  0  0  0  0
 10 14  2  0  0  0  0
 10 22  1  0  0  0  0
 11 15  1  0  0  0  0
 11 31  1  0  0  0  0
 11 32  1  0  0  0  0
 13 14  1  0  0  0  0
 13 25  2  0  0  0  0
 14 33  1  0  0  0  0
 15 19  2  0  0  0  0
 15 26  1  0  0  0  0
 19 20  1  0  0  0  0
 19 34  1  0  0  0  0
 20 21  1  0  0  0  0
 20 27  2  0  0  0  0
 21 28  1  0  0  0  0
 22 23  2  0  0  0  0
 22 35  1  0  0  0  0
 23 25  1  0  0  0  0
 23 36  1  0  0  0  0
 24 26  2  0  0  0  0
 24 27  1  0  0  0  0
 24 37  1  0  0  0  0
 25 38  1  0  0  0  0
 26 39  1  0  0  0  0
 27 40  1  0  0  0  0
 28 41  1  0  0  0  0
 28 42  1  0  0  0  0
 28 43  1  0  0  0  0
M  CHG  1   8  -1
M  END
>  <$CLUSTER>
877

>  <INDEX>
130463

$$$$
Life Chemicals F0325-0222
  MOE2020           3D

 40 42  0  0  1  0  0  0  0  0999 V2000
    0.5400   -0.5390    0.1920 C   0  0  0  0  0  0  0  0  0  0  0  0
    0.4060    0.1020    1.4200 C   0  0  0  0  0  0  0  0  0  0  0  0
   -0.1840    0.1730   -0.8400 C   0  0  0  0  0  0  0  0  0  0  0  0
   -0.5130    1.5270    1.3140 S   0  0  0  0  0  0  0  0  0  0  0  0
   -0.7850    1.3140   -0.3430 C   0  0  0  0  0  0  0  0  0  0  0  0
    0.9530   -0.3140    2.6300 N   0  0  0  0  0  0  0  0  0  0  0  0
    0.8380    0.3180    3.8620 C   0  0  0  0  0  0  0  0  0  0  0  0
    1.2960   -1.7860    0.0420 C   0  0  0  0  0  0  0  0  0  0  0  0
    1.5760   -0.4510    4.9300 C   0  0  0  0  0  0  0  0  0  0  0  0
   -0.3340   -0.2110   -2.2880 C   0  0  0  0  0  0  0  0  0  0  0  0
   -1.6440    2.2600   -1.1230 C   0  0  0  0  0  0  0  0  0  0  0  0
    0.2440    1.3550    4.1400 O   0  0  0  0  0  0  0  0  0  0  0  0
    1.2940   -2.6640    0.9020 O   0  0  0  0  0  0  0  0  0  0  0  0
    1.1240   -0.2460    6.2730 C   0  0  0  0  0  0  0  0  0  0  0  0
    2.0440   -1.8840   -1.1100 N   0  0  0  0  0  0  0  0  0  0  0  0
    1.7650   -0.9000    7.3280 C   0  0  0  0  0  0  0  0  0  0  0  0
   -1.5270    0.5050   -2.9610 C   0  0  3  0  0  0  0  0  0  0  0  0
   -1.5080    2.0110   -2.6310 C   0  0  0  0  0  0  0  0  0  0  0  0
    1.2260   -0.6860    8.9290 Cl  0  0  0  0  0  0  0  0  0  0  0  0
    2.6650   -1.2600    4.7090 C   0  0  0  0  0  0  0  0  0  0  0  0
    3.3030   -1.9110    5.7680 C   0  0  0  0  0  0  0  0  0  0  0  0
    2.8520   -1.7330    7.0750 C   0  0  0  0  0  0  0  0  0  0  0  0
   -1.5020    0.2790   -4.4720 C   0  0  0  0  0  0  0  0  0  0  0  0
    1.4920   -1.1680    2.6110 H   0  0  0  0  0  0  0  0  0  0  0  0
   -0.4900   -1.2880   -2.3510 H   0  0  0  0  0  0  0  0  0  0  0  0
    0.5800    0.0560   -2.8180 H   0  0  0  0  0  0  0  0  0  0  0  0
   -1.3390    3.2830   -0.9020 H   0  0  0  0  0  0  0  0  0  0  0  0
   -2.6850    2.1200   -0.8310 H   0  0  0  0  0  0  0  0  0  0  0  0
    0.2900    0.4120    6.4700 H   0  0  0  0  0  0  0  0  0  0  0  0
    2.6180   -2.6990   -1.2720 H   0  0  0  0  0  0  0  0  0  0  0  0
    2.0190   -1.1410   -1.7930 H   0  0  0  0  0  0  0  0  0  0  0  0
   -2.4520    0.0830   -2.5690 H   0  0  0  0  0  0  0  0  0  0  0  0
   -0.5660    2.4370   -2.9760 H   0  0  0  0  0  0  0  0  0  0  0  0
   -2.3370    2.4970   -3.1460 H   0  0  0  0  0  0  0  0  0  0  0  0
    3.0330   -1.3940    3.7020 H   0  0  0  0  0  0  0  0  0  0  0  0
    4.1480   -2.5540    5.5730 H   0  0  0  0  0  0  0  0  0  0  0  0
    3.3450   -2.2410    7.8910 H   0  0  0  0  0  0  0  0  0  0  0  0
   -0.5830    0.6950   -4.8860 H   0  0  0  0  0  0  0  0  0  0  0  0
   -2.3610    0.7710   -4.9270 H   0  0  0  0  0  0  0  0  0  0  0  0
   -1.5430   -0.7900   -4.6800 H   0  0  0  0  0  0  0  0  0  0  0  0
  1  2  2  0  0  0  0
  1  3  1  0  0  0  0
  1  8  1  0  0  0  0
  2  4  1  0  0  0  0
  2  6  1  0  0  0  0
  3  5  2  0  0  0  0
  3 10  1  0  0  0  0
  4  5  1  0  0  0  0
  5 11  1  0  0  0  0
  6  7  1  0  0  0  0
  6 24  1  0  0  0  0
  7  9  1  0  0  0  0
  7 12  2  0  0  0  0
  8 13  2  0  0  0  0
  8 15  1  0  0  0  0
  9 14  2  0  0  0  0
  9 20  1  0  0  0  0
 10 17  1  0  0  0  0
 10 25  1  0  0  0  0
 10 26  1  0  0  0  0
 11 18  1  0  0  0  0
 11 27  1  0  0  0  0
 11 28  1  0  0  0  0
 14 16  1  0  0  0  0
 14 29  1  0  0  0  0
 15 30  1  0  0  0  0
 15 31  1  0  0  0  0
 16 19  1  0  0  0  0
 16 22  2  0  0  0  0
 17 18  1  0  0  0  0
 17 23  1  0  0  0  0
 17 32  1  0  0  0  0
 18 33  1  0  0  0  0
 18 34  1  0  0  0  0
 20 21  2  0  0  0  0
 20 35  1  0  0  0  0
 21 22  1  0  0  0  0
 21 36  1  0  0  0  0
 22 37  1  0  0  0  0
 23 38  1  0  0  0  0
 23 39  1  0  0  0  0
 23 40  1  0  0  0  0
M  END
>  <$CLUSTER>
878

>  <INDEX>
269410

$$$$
Chemdiv C094-1548
  MOE2020           3D

 52 54  0  0  1  0  0  0  0  0999 V2000
    1.2120   -0.1660   -0.5010 C   0  0  0  0  0  0  0  0  0  0  0  0
    2.4110   -1.0210   -0.1920 C   0  0  3  0  0  0  0  0  0  0  0  0
    2.1500   -2.4840   -0.5150 N   0  3  0  0  0  0  0  0  0  0  0  0
    0.1180   -0.4900    0.2840 N   0  0  0  0  0  0  0  0  0  0  0  0
    1.2470    0.7210   -1.3500 O   0  0  0  0  0  0  0  0  0  0  0  0
    3.7000   -0.6280   -0.9470 C   0  0  0  0  0  0  0  0  0  0  0  0
    2.5880   -5.1820   -1.4880 O   0  0  0  0  0  0  0  0  0  0  0  0
    4.9180   -0.5040   -0.2460 C   0  0  0  0  0  0  0  0  0  0  0  0
    3.7030   -0.3470   -2.3250 C   0  0  0  0  0  0  0  0  0  0  0  0
   -1.1630    0.2000    0.1830 C   0  0  0  0  0  0  0  0  0  0  0  0
    4.8770    0.0270   -2.9790 C   0  0  0  0  0  0  0  0  0  0  0  0
    6.0900   -0.1300   -0.9030 C   0  0  0  0  0  0  0  0  0  0  0  0
    6.0690    0.1380   -2.2700 C   0  0  0  0  0  0  0  0  0  0  0  0
    1.9670   -2.8760   -1.9540 C   0  0  0  0  0  0  0  0  0  0  0  0
    3.0220   -3.4760    0.2150 C   0  0  0  0  0  0  0  0  0  0  0  0
    2.6420   -4.9140   -0.0700 C   0  0  0  0  0  0  0  0  0  0  0  0
    1.6340   -4.3190   -2.1450 C   0  0  0  0  0  0  0  0  0  0  0  0
    7.3260    0.5420   -2.9700 C   0  0  0  0  0  0  0  0  0  0  0  0
   -1.1780    1.4220    1.0970 C   0  0  0  0  0  0  0  0  0  0  0  0
   -2.3040   -0.7510    0.5240 C   0  0  0  0  0  0  0  0  0  0  0  0
   -3.6590   -0.0490    0.4950 C   0  0  0  0  0  0  0  0  0  0  0  0
   -2.5280    2.1350    1.0700 C   0  0  0  0  0  0  0  0  0  0  0  0
   -3.6710    1.1790    1.4000 C   0  0  0  0  0  0  0  0  0  0  0  0
    2.5690   -0.8570    0.8740 H   0  0  0  0  0  0  0  0  0  0  0  0
    1.2200   -2.5490   -0.1270 H   0  0  0  0  0  0  0  0  0  0  0  0
    0.2110   -1.2380    0.9570 H   0  0  0  0  0  0  0  0  0  0  0  0
    4.9430   -0.7020    0.8150 H   0  0  0  0  0  0  0  0  0  0  0  0
    2.7830   -0.4220   -2.8850 H   0  0  0  0  0  0  0  0  0  0  0  0
   -1.3010    0.5410   -0.8430 H   0  0  0  0  0  0  0  0  0  0  0  0
    4.8610    0.2310   -4.0390 H   0  0  0  0  0  0  0  0  0  0  0  0
    7.0150   -0.0480   -0.3510 H   0  0  0  0  0  0  0  0  0  0  0  0
    2.8920   -2.6630   -2.4890 H   0  0  0  0  0  0  0  0  0  0  0  0
    1.1580   -2.2780   -2.3740 H   0  0  0  0  0  0  0  0  0  0  0  0
    2.9300   -3.2980    1.2860 H   0  0  0  0  0  0  0  0  0  0  0  0
    4.0570   -3.3220   -0.0920 H   0  0  0  0  0  0  0  0  0  0  0  0
    3.3820   -5.5720    0.3860 H   0  0  0  0  0  0  0  0  0  0  0  0
    1.6620   -5.1130    0.3650 H   0  0  0  0  0  0  0  0  0  0  0  0
    0.6430   -4.5100   -1.7330 H   0  0  0  0  0  0  0  0  0  0  0  0
    1.6330   -4.5420   -3.2120 H   0  0  0  0  0  0  0  0  0  0  0  0
    7.1160    0.7080   -4.0270 H   0  0  0  0  0  0  0  0  0  0  0  0
    8.0690   -0.2490   -2.8670 H   0  0  0  0  0  0  0  0  0  0  0  0
    7.7100    1.4610   -2.5270 H   0  0  0  0  0  0  0  0  0  0  0  0
   -0.4050    2.1170    0.7690 H   0  0  0  0  0  0  0  0  0  0  0  0
   -0.9690    1.1020    2.1180 H   0  0  0  0  0  0  0  0  0  0  0  0
   -2.1380   -1.1560    1.5220 H   0  0  0  0  0  0  0  0  0  0  0  0
   -2.3130   -1.5650   -0.2010 H   0  0  0  0  0  0  0  0  0  0  0  0
   -4.4260   -0.7460    0.8330 H   0  0  0  0  0  0  0  0  0  0  0  0
   -3.8750    0.2620   -0.5270 H   0  0  0  0  0  0  0  0  0  0  0  0
   -2.6890    2.5500    0.0750 H   0  0  0  0  0  0  0  0  0  0  0  0
   -2.5180    2.9410    1.8030 H   0  0  0  0  0  0  0  0  0  0  0  0
   -3.5730    0.8550    2.4360 H   0  0  0  0  0  0  0  0  0  0  0  0
   -4.6180    1.7030    1.2720 H   0  0  0  0  0  0  0  0  0  0  0  0
  1  2  1  0  0  0  0
  1  4  1  0  0  0  0
  1  5  2  0  0  0  0
  2  3  1  0  0  0  0
  2  6  1  0  0  0  0
  2 24  1  0  0  0  0
  3 14  1  0  0  0  0
  3 15  1  0  0  0  0
  3 25  1  0  0  0  0
  4 10  1  0  0  0  0
  4 26  1  0  0  0  0
  6  8  1  0  0  0  0
  6  9  2  0  0  0  0
  7 16  1  0  0  0  0
  7 17  1  0  0  0  0
  8 12  2  0  0  0  0
  8 27  1  0  0  0  0
  9 11  1  0  0  0  0
  9 28  1  0  0  0  0
 10 19  1  0  0  0  0
 10 20  1  0  0  0  0
 10 29  1  0  0  0  0
 11 13  2  0  0  0  0
 11 30  1  0  0  0  0
 12 13  1  0  0  0  0
 12 31  1  0  0  0  0
 13 18  1  0  0  0  0
 14 17  1  0  0  0  0
 14 32  1  0  0  0  0
 14 33  1  0  0  0  0
 15 16  1  0  0  0  0
 15 34  1  0  0  0  0
 15 35  1  0  0  0  0
 16 36  1  0  0  0  0
 16 37  1  0  0  0  0
 17 38  1  0  0  0  0
 17 39  1  0  0  0  0
 18 40  1  0  0  0  0
 18 41  1  0  0  0  0
 18 42  1  0  0  0  0
 19 22  1  0  0  0  0
 19 43  1  0  0  0  0
 19 44  1  0  0  0  0
 20 21  1  0  0  0  0
 20 45  1  0  0  0  0
 20 46  1  0  0  0  0
 21 23  1  0  0  0  0
 21 47  1  0  0  0  0
 21 48  1  0  0  0  0
 22 23  1  0  0  0  0
 22 49  1  0  0  0  0
 22 50  1  0  0  0  0
 23 51  1  0  0  0  0
 23 52  1  0  0  0  0
M  CHG  1   3   1
M  END
>  <$CLUSTER>
879

>  <INDEX>
185370

$$$$
Chem T&I NSB 0023951
  MOE2020           3D

 34 35  0  0  0  0  0  0  0  0999 V2000
   -1.7270   -0.1590    0.3230 S   0  0  0  0  0  0  0  0  0  0  0  0
    1.5690    0.9890   -4.0120 C   0  0  0  0  0  0  0  0  0  0  0  0
    2.3040    0.7000   -2.8680 N   0  0  0  0  0  0  0  0  0  0  0  0
    0.0040   -0.0300   -0.0060 C   0  0  0  0  0  0  0  0  0  0  0  0
    1.8110    0.3660   -1.5580 C   0  0  0  0  0  0  0  0  0  0  0  0
    0.4420    0.2930   -1.2940 C   0  0  0  0  0  0  0  0  0  0  0  0
    2.4780    1.2900   -5.1790 C   0  0  0  0  0  0  0  0  0  0  0  0
   -2.4130   -0.4580   -0.9230 O   0  0  0  0  0  0  0  0  0  0  0  0
   -1.9210   -1.0130    1.4810 O   0  0  0  0  0  0  0  0  0  0  0  0
   -2.1450    1.4000    0.7670 N   0  0  0  0  0  0  0  0  0  0  0  0
    2.7330    0.1110   -0.5420 C   0  0  0  0  0  0  0  0  0  0  0  0
    0.3500    1.0200   -4.1440 O   0  0  0  0  0  0  0  0  0  0  0  0
    1.9140    2.0940   -6.2180 C   0  0  0  0  0  0  0  0  0  0  0  0
    0.9250   -0.2930    1.0120 C   0  0  0  0  0  0  0  0  0  0  0  0
    2.2920   -0.2180    0.7410 C   0  0  0  0  0  0  0  0  0  0  0  0
    2.6770    2.4000   -7.3470 C   0  0  0  0  0  0  0  0  0  0  0  0
    2.0310    3.3750   -8.5840 Cl  0  0  0  0  0  0  0  0  0  0  0  0
    3.7520    0.7960   -5.3300 C   0  0  0  0  0  0  0  0  0  0  0  0
    4.5100    1.1050   -6.4610 C   0  0  0  0  0  0  0  0  0  0  0  0
    4.2340    0.1720   -0.7700 C   0  0  0  0  0  0  0  0  0  0  0  0
    3.9740    1.9080   -7.4670 C   0  0  0  0  0  0  0  0  0  0  0  0
    3.3090    0.7280   -2.9690 H   0  0  0  0  0  0  0  0  0  0  0  0
   -0.2740    0.4850   -2.0790 H   0  0  0  0  0  0  0  0  0  0  0  0
   -2.0200    2.0190   -0.0210 H   0  0  0  0  0  0  0  0  0  0  0  0
   -1.5560    1.7020    1.5300 H   0  0  0  0  0  0  0  0  0  0  0  0
    0.9030    2.4630   -6.1300 H   0  0  0  0  0  0  0  0  0  0  0  0
    0.5810   -0.5530    2.0020 H   0  0  0  0  0  0  0  0  0  0  0  0
    3.0090   -0.4150    1.5240 H   0  0  0  0  0  0  0  0  0  0  0  0
    4.1720    0.1610   -4.5640 H   0  0  0  0  0  0  0  0  0  0  0  0
    5.5150    0.7210   -6.5570 H   0  0  0  0  0  0  0  0  0  0  0  0
    4.4330    0.4380   -1.8080 H   0  0  0  0  0  0  0  0  0  0  0  0
    4.6740   -0.8010   -0.5530 H   0  0  0  0  0  0  0  0  0  0  0  0
    4.6710    0.9230   -0.1120 H   0  0  0  0  0  0  0  0  0  0  0  0
    4.5650    2.1480   -8.3390 H   0  0  0  0  0  0  0  0  0  0  0  0
  1  4  1  0  0  0  0
  1  8  2  0  0  0  0
  1  9  2  0  0  0  0
  1 10  1  0  0  0  0
  2  3  1  0  0  0  0
  2  7  1  0  0  0  0
  2 12  2  0  0  0  0
  3  5  1  0  0  0  0
  3 22  1  0  0  0  0
  4  6  2  0  0  0  0
  4 14  1  0  0  0  0
  5  6  1  0  0  0  0
  5 11  2  0  0  0  0
  6 23  1  0  0  0  0
  7 13  2  0  0  0  0
  7 18  1  0  0  0  0
 10 24  1  0  0  0  0
 10 25  1  0  0  0  0
 11 15  1  0  0  0  0
 11 20  1  0  0  0  0
 13 16  1  0  0  0  0
 13 26  1  0  0  0  0
 14 15  2  0  0  0  0
 14 27  1  0  0  0  0
 15 28  1  0  0  0  0
 16 17  1  0  0  0  0
 16 21  2  0  0  0  0
 18 19  2  0  0  0  0
 18 29  1  0  0  0  0
 19 21  1  0  0  0  0
 19 30  1  0  0  0  0
 20 31  1  0  0  0  0
 20 32  1  0  0  0  0
 20 33  1  0  0  0  0
 21 34  1  0  0  0  0
M  END
>  <$CLUSTER>
880

>  <INDEX>
569207

$$$$
Chem T&I IVK/0000986
  MOE2020           3D

 52 53  0  0  0  0  0  0  0  0999 V2000
    1.9980    0.5300    0.9160 C   0  0  0  0  0  0  0  0  0  0  0  0
    0.7020    0.9010    0.6740 N   0  0  0  0  0  0  0  0  0  0  0  0
   -0.2980    0.1980    0.0000 C   0  0  0  0  0  0  0  0  0  0  0  0
    2.7590    1.5840    1.6840 C   0  0  0  0  0  0  0  0  0  0  0  0
    4.3480    3.4200    3.0730 C   0  0  0  0  0  0  0  0  0  0  0  0
   -1.4910    0.8510   -0.0700 N   0  0  0  0  0  0  0  0  0  0  0  0
    2.9630    3.4130    3.2330 C   0  0  0  0  0  0  0  0  0  0  0  0
    4.9540    2.4970    2.2250 C   0  0  0  0  0  0  0  0  0  0  0  0
    2.1800    2.4860    2.5420 C   0  0  0  0  0  0  0  0  0  0  0  0
    4.1770    1.5680    1.5310 C   0  0  0  0  0  0  0  0  0  0  0  0
    2.5410   -0.5190    0.5770 O   0  0  0  0  0  0  0  0  0  0  0  0
   -2.5120    0.2260   -0.7120 C   0  0  0  0  0  0  0  0  0  0  0  0
   -0.1130   -1.0630   -0.5600 C   0  0  0  0  0  0  0  0  0  0  0  0
   -1.1810   -1.6800   -1.2140 C   0  0  0  0  0  0  0  0  0  0  0  0
   -2.4050   -1.0270   -1.2940 C   0  0  0  0  0  0  0  0  0  0  0  0
    5.1240    4.3500    3.7500 O   0  0  0  0  0  0  0  0  0  0  0  0
    2.4400    4.4000    4.1020 O   0  0  0  0  0  0  0  0  0  0  0  0
    6.3490    2.5830    2.1050 O   0  0  0  0  0  0  0  0  0  0  0  0
   -3.8200    0.9580   -0.7780 C   0  0  0  0  0  0  0  0  0  0  0  0
   -1.0040   -3.0310   -1.8200 C   0  0  0  0  0  0  0  0  0  0  0  0
    5.5280    3.8200    5.0220 C   0  0  0  0  0  0  0  0  0  0  0  0
    6.9850    1.6760    1.1960 C   0  0  0  0  0  0  0  0  0  0  0  0
    1.0150    4.4500    4.2430 C   0  0  0  0  0  0  0  0  0  0  0  0
    0.6190    5.5230    5.1760 C   0  0  0  0  0  0  0  0  0  0  0  0
    6.3800    4.8790    5.7290 C   0  0  0  0  0  0  0  0  0  0  0  0
    8.4470    1.8830    1.1760 C   0  0  0  0  0  0  0  0  0  0  0  0
    0.4330    1.8060    1.0320 H   0  0  0  0  0  0  0  0  0  0  0  0
    1.1090    2.4790    2.6840 H   0  0  0  0  0  0  0  0  0  0  0  0
    4.6460    0.8420    0.8830 H   0  0  0  0  0  0  0  0  0  0  0  0
    0.8440   -1.5580   -0.4890 H   0  0  0  0  0  0  0  0  0  0  0  0
   -3.2470   -1.4820   -1.7940 H   0  0  0  0  0  0  0  0  0  0  0  0
   -3.7240    1.9190   -0.2730 H   0  0  0  0  0  0  0  0  0  0  0  0
   -4.5930    0.3660   -0.2880 H   0  0  0  0  0  0  0  0  0  0  0  0
   -4.0930    1.1200   -1.8210 H   0  0  0  0  0  0  0  0  0  0  0  0
    0.0170   -3.3730   -1.6530 H   0  0  0  0  0  0  0  0  0  0  0  0
   -1.1990   -2.9770   -2.8910 H   0  0  0  0  0  0  0  0  0  0  0  0
   -1.7010   -3.7300   -1.3580 H   0  0  0  0  0  0  0  0  0  0  0  0
    6.1130    2.9120    4.8750 H   0  0  0  0  0  0  0  0  0  0  0  0
    4.6480    3.5920    5.6240 H   0  0  0  0  0  0  0  0  0  0  0  0
    6.5880    1.8390    0.1940 H   0  0  0  0  0  0  0  0  0  0  0  0
    6.7740    0.6530    1.5080 H   0  0  0  0  0  0  0  0  0  0  0  0
    0.6600    3.4940    4.6270 H   0  0  0  0  0  0  0  0  0  0  0  0
    0.5660    4.6400    3.2680 H   0  0  0  0  0  0  0  0  0  0  0  0
    1.0660    5.3380    6.1530 H   0  0  0  0  0  0  0  0  0  0  0  0
   -0.4670    5.5400    5.2700 H   0  0  0  0  0  0  0  0  0  0  0  0
    0.9660    6.4830    4.7940 H   0  0  0  0  0  0  0  0  0  0  0  0
    7.2580    5.1030    5.1230 H   0  0  0  0  0  0  0  0  0  0  0  0
    6.6970    4.5010    6.7010 H   0  0  0  0  0  0  0  0  0  0  0  0
    5.7920    5.7860    5.8660 H   0  0  0  0  0  0  0  0  0  0  0  0
    8.6650    2.9050    0.8650 H   0  0  0  0  0  0  0  0  0  0  0  0
    8.9030    1.1840    0.4750 H   0  0  0  0  0  0  0  0  0  0  0  0
    8.8520    1.7130    2.1740 H   0  0  0  0  0  0  0  0  0  0  0  0
  1  2  1  0  0  0  0
  1  4  1  0  0  0  0
  1 11  2  0  0  0  0
  2  3  1  0  0  0  0
  2 27  1  0  0  0  0
  3  6  2  0  0  0  0
  3 13  1  0  0  0  0
  4  9  2  0  0  0  0
  4 10  1  0  0  0  0
  5  7  2  0  0  0  0
  5  8  1  0  0  0  0
  5 16  1  0  0  0  0
  6 12  1  0  0  0  0
  7  9  1  0  0  0  0
  7 17  1  0  0  0  0
  8 10  2  0  0  0  0
  8 18  1  0  0  0  0
  9 28  1  0  0  0  0
 10 29  1  0  0  0  0
 12 15  2  0  0  0  0
 12 19  1  0  0  0  0
 13 14  2  0  0  0  0
 13 30  1  0  0  0  0
 14 15  1  0  0  0  0
 14 20  1  0  0  0  0
 15 31  1  0  0  0  0
 16 21  1  0  0  0  0
 17 23  1  0  0  0  0
 18 22  1  0  0  0  0
 19 32  1  0  0  0  0
 19 33  1  0  0  0  0
 19 34  1  0  0  0  0
 20 35  1  0  0  0  0
 20 36  1  0  0  0  0
 20 37  1  0  0  0  0
 21 25  1  0  0  0  0
 21 38  1  0  0  0  0
 21 39  1  0  0  0  0
 22 26  1  0  0  0  0
 22 40  1  0  0  0  0
 22 41  1  0  0  0  0
 23 24  1  0  0  0  0
 23 42  1  0  0  0  0
 23 43  1  0  0  0  0
 24 44  1  0  0  0  0
 24 45  1  0  0  0  0
 24 46  1  0  0  0  0
 25 47  1  0  0  0  0
 25 48  1  0  0  0  0
 25 49  1  0  0  0  0
 26 50  1  0  0  0  0
 26 51  1  0  0  0  0
 26 52  1  0  0  0  0
M  END
>  <$CLUSTER>
881

>  <INDEX>
553422

$$$$
Chem T&I NSB 0027204
  MOE2020           3D

 34 35  0  0  0  0  0  0  0  0999 V2000
    0.8190    1.0430    0.0640 C   0  0  0  0  0  0  0  0  0  0  0  0
   -1.8060   -6.6280    2.0770 N   0  3  0  0  0  0  0  0  0  0  0  0
   -0.3280    0.2530    0.0580 C   0  0  0  0  0  0  0  0  0  0  0  0
   -1.3690   -1.9960    0.1440 C   0  0  0  0  0  0  0  0  0  0  0  0
   -0.2780   -1.1400    0.1440 N   0  0  0  0  0  0  0  0  0  0  0  0
   -1.2220   -5.6530    1.1730 C   0  0  0  0  0  0  0  0  0  0  0  0
   -1.6060   -4.3020    1.1500 C   0  0  0  0  0  0  0  0  0  0  0  0
   -0.9340   -3.4360    0.2510 C   0  0  0  0  0  0  0  0  0  0  0  0
    2.2290    0.7030    0.1520 C   0  0  0  0  0  0  0  0  0  0  0  0
    0.4320    2.7180   -0.0550 S   0  0  0  0  0  0  0  0  0  0  0  0
   -1.5090    1.0590   -0.0470 C   0  0  0  0  0  0  0  0  0  0  0  0
   -1.2370    2.4050   -0.1150 C   0  0  0  0  0  0  0  0  0  0  0  0
   -1.7950   -6.3650    3.2900 O   0  5  0  0  0  0  0  0  0  0  0  0
   -2.2840   -7.6610    1.5790 O   0  0  0  0  0  0  0  0  0  0  0  0
   -2.5580   -1.7000    0.0690 O   0  0  0  0  0  0  0  0  0  0  0  0
    3.1740    1.4830    0.1490 O   0  0  0  0  0  0  0  0  0  0  0  0
    2.4130   -0.6410    0.2410 O   0  0  0  0  0  0  0  0  0  0  0  0
   -0.2110   -6.1280    0.3350 C   0  0  0  0  0  0  0  0  0  0  0  0
    0.0540   -3.9170   -0.5930 C   0  0  0  0  0  0  0  0  0  0  0  0
   -2.6980   -3.8460    2.0770 C   0  0  0  0  0  0  0  0  0  0  0  0
    0.4270   -5.2590   -0.5460 C   0  0  0  0  0  0  0  0  0  0  0  0
    3.7420   -1.1400    0.3340 C   0  0  0  0  0  0  0  0  0  0  0  0
    0.6370   -1.5630    0.2120 H   0  0  0  0  0  0  0  0  0  0  0  0
   -2.5090    0.6510   -0.0700 H   0  0  0  0  0  0  0  0  0  0  0  0
   -1.9930    3.1710   -0.1970 H   0  0  0  0  0  0  0  0  0  0  0  0
    0.0760   -7.1690    0.3700 H   0  0  0  0  0  0  0  0  0  0  0  0
    0.5370   -3.2490   -1.2900 H   0  0  0  0  0  0  0  0  0  0  0  0
   -3.0530   -4.6930    2.6640 H   0  0  0  0  0  0  0  0  0  0  0  0
   -3.5230   -3.4370    1.4930 H   0  0  0  0  0  0  0  0  0  0  0  0
   -2.3100   -3.0780    2.7460 H   0  0  0  0  0  0  0  0  0  0  0  0
    1.2110   -5.6250   -1.1930 H   0  0  0  0  0  0  0  0  0  0  0  0
    3.7180   -2.2280    0.3980 H   0  0  0  0  0  0  0  0  0  0  0  0
    4.2210   -0.7340    1.2250 H   0  0  0  0  0  0  0  0  0  0  0  0
    4.3050   -0.8400   -0.5500 H   0  0  0  0  0  0  0  0  0  0  0  0
  1  3  2  0  0  0  0
  1  9  1  0  0  0  0
  1 10  1  0  0  0  0
  2  6  1  0  0  0  0
  2 13  1  0  0  0  0
  2 14  2  0  0  0  0
  3  5  1  0  0  0  0
  3 11  1  0  0  0  0
  4  5  1  0  0  0  0
  4  8  1  0  0  0  0
  4 15  2  0  0  0  0
  5 23  1  0  0  0  0
  6  7  2  0  0  0  0
  6 18  1  0  0  0  0
  7  8  1  0  0  0  0
  7 20  1  0  0  0  0
  8 19  2  0  0  0  0
  9 16  2  0  0  0  0
  9 17  1  0  0  0  0
 10 12  1  0  0  0  0
 11 12  2  0  0  0  0
 11 24  1  0  0  0  0
 12 25  1  0  0  0  0
 17 22  1  0  0  0  0
 18 21  2  0  0  0  0
 18 26  1  0  0  0  0
 19 21  1  0  0  0  0
 19 27  1  0  0  0  0
 20 28  1  0  0  0  0
 20 29  1  0  0  0  0
 20 30  1  0  0  0  0
 21 31  1  0  0  0  0
 22 32  1  0  0  0  0
 22 33  1  0  0  0  0
 22 34  1  0  0  0  0
M  CHG  1   2   1
M  CHG  1  13  -1
M  END
>  <$CLUSTER>
882

>  <INDEX>
569551

$$$$
Enamine T0507-7757
  MOE2020           3D

 46 48  0  0  0  0  0  0  0  0999 V2000
    0.5910   -0.0290   -0.2600 C   0  0  0  0  0  0  0  0  0  0  0  0
    1.8380    0.3230    0.4530 C   0  0  0  0  0  0  0  0  0  0  0  0
    7.5000    5.0200   -0.9190 N   0  0  0  0  0  0  0  0  0  0  0  0
    6.5910    3.3230    0.1820 N   0  0  0  0  0  0  0  0  0  0  0  0
    7.2550    3.7270   -0.9410 C   0  0  0  0  0  0  0  0  0  0  0  0
   -0.4780   -0.6370    0.4220 C   0  0  0  0  0  0  0  0  0  0  0  0
    6.9760    5.4570    0.2730 C   0  0  0  0  0  0  0  0  0  0  0  0
    6.4110    4.4190    0.9770 C   0  0  0  0  0  0  0  0  0  0  0  0
   -0.2830   -0.9280    1.7470 O   0  0  0  0  0  0  0  0  0  0  0  0
    1.7950    0.8470    1.5610 O   0  0  0  0  0  0  0  0  0  0  0  0
    3.0060    0.0160   -0.2070 N   0  0  0  0  0  0  0  0  0  0  0  0
   -1.3670   -1.5130    2.4580 C   0  0  0  0  0  0  0  0  0  0  0  0
    0.4800    0.2870   -1.6210 C   0  0  0  0  0  0  0  0  0  0  0  0
    6.1850    1.9620    0.4930 C   0  0  0  0  0  0  0  0  0  0  0  0
   -1.0170   -1.7740    3.8770 C   0  0  0  0  0  0  0  0  0  0  0  0
    4.7810    1.6790   -0.0240 C   0  0  0  0  0  0  0  0  0  0  0  0
    4.3240    0.2680    0.2960 C   0  0  0  0  0  0  0  0  0  0  0  0
   -1.6500   -0.9280   -0.2870 C   0  0  0  0  0  0  0  0  0  0  0  0
   -0.4070   -2.9800    4.2450 C   0  0  0  0  0  0  0  0  0  0  0  0
   -1.2010   -0.7800    4.8460 C   0  0  0  0  0  0  0  0  0  0  0  0
   -0.6930   -0.0100   -2.3110 C   0  0  0  0  0  0  0  0  0  0  0  0
   -1.7550   -0.6160   -1.6450 C   0  0  0  0  0  0  0  0  0  0  0  0
   -0.0340   -3.2060    5.5710 C   0  0  0  0  0  0  0  0  0  0  0  0
   -0.8280   -1.0080    6.1720 C   0  0  0  0  0  0  0  0  0  0  0  0
   -0.2450   -2.2220    6.5350 C   0  0  0  0  0  0  0  0  0  0  0  0
    7.5430    3.0680   -1.7470 H   0  0  0  0  0  0  0  0  0  0  0  0
    7.0040    6.4820    0.6130 H   0  0  0  0  0  0  0  0  0  0  0  0
    5.9310    4.4610    1.9440 H   0  0  0  0  0  0  0  0  0  0  0  0
    2.9280   -0.4200   -1.1150 H   0  0  0  0  0  0  0  0  0  0  0  0
   -1.6340   -2.4560    1.9810 H   0  0  0  0  0  0  0  0  0  0  0  0
   -2.2190   -0.8340    2.4240 H   0  0  0  0  0  0  0  0  0  0  0  0
    1.3040    0.7610   -2.1350 H   0  0  0  0  0  0  0  0  0  0  0  0
    6.2010    1.8240    1.5740 H   0  0  0  0  0  0  0  0  0  0  0  0
    6.8830    1.2670    0.0270 H   0  0  0  0  0  0  0  0  0  0  0  0
    4.7720    1.8140   -1.1060 H   0  0  0  0  0  0  0  0  0  0  0  0
    4.0890    2.3850    0.4360 H   0  0  0  0  0  0  0  0  0  0  0  0
    5.0180   -0.4400   -0.1570 H   0  0  0  0  0  0  0  0  0  0  0  0
    4.3220    0.1330    1.3780 H   0  0  0  0  0  0  0  0  0  0  0  0
   -2.4800   -1.3980    0.2200 H   0  0  0  0  0  0  0  0  0  0  0  0
   -0.2240   -3.7390    3.4990 H   0  0  0  0  0  0  0  0  0  0  0  0
   -1.6340    0.1690    4.5660 H   0  0  0  0  0  0  0  0  0  0  0  0
   -0.7790    0.2290   -3.3610 H   0  0  0  0  0  0  0  0  0  0  0  0
   -2.6640   -0.8460   -2.1810 H   0  0  0  0  0  0  0  0  0  0  0  0
    0.4190   -4.1460    5.8510 H   0  0  0  0  0  0  0  0  0  0  0  0
   -0.9910   -0.2440    6.9170 H   0  0  0  0  0  0  0  0  0  0  0  0
    0.0420   -2.3990    7.5610 H   0  0  0  0  0  0  0  0  0  0  0  0
  1  2  1  0  0  0  0
  1  6  2  0  0  0  0
  1 13  1  0  0  0  0
  2 10  2  0  0  0  0
  2 11  1  0  0  0  0
  3  5  2  0  0  0  0
  3  7  1  0  0  0  0
  4  5  1  0  0  0  0
  4  8  1  0  0  0  0
  4 14  1  0  0  0  0
  5 26  1  0  0  0  0
  6  9  1  0  0  0  0
  6 18  1  0  0  0  0
  7  8  2  0  0  0  0
  7 27  1  0  0  0  0
  8 28  1  0  0  0  0
  9 12  1  0  0  0  0
 11 17  1  0  0  0  0
 11 29  1  0  0  0  0
 12 15  1  0  0  0  0
 12 30  1  0  0  0  0
 12 31  1  0  0  0  0
 13 21  2  0  0  0  0
 13 32  1  0  0  0  0
 14 16  1  0  0  0  0
 14 33  1  0  0  0  0
 14 34  1  0  0  0  0
 15 19  2  0  0  0  0
 15 20  1  0  0  0  0
 16 17  1  0  0  0  0
 16 35  1  0  0  0  0
 16 36  1  0  0  0  0
 17 37  1  0  0  0  0
 17 38  1  0  0  0  0
 18 22  2  0  0  0  0
 18 39  1  0  0  0  0
 19 23  1  0  0  0  0
 19 40  1  0  0  0  0
 20 24  2  0  0  0  0
 20 41  1  0  0  0  0
 21 22  1  0  0  0  0
 21 42  1  0  0  0  0
 22 43  1  0  0  0  0
 23 25  2  0  0  0  0
 23 44  1  0  0  0  0
 24 25  1  0  0  0  0
 24 45  1  0  0  0  0
 25 46  1  0  0  0  0
M  END
>  <$CLUSTER>
883

>  <INDEX>
416012

$$$$
Chem T&I NSB 0075662
  MOE2020           3D

 33 34  0  0  0  0  0  0  0  0999 V2000
   -0.5790    0.1450    0.1350 N   0  0  0  0  0  0  0  0  0  0  0  0
   -1.4740    1.5620   -1.5690 C   0  0  0  0  0  0  0  0  0  0  0  0
   -0.3260    0.8830   -0.9750 N   0  0  0  0  0  0  0  0  0  0  0  0
    0.4150   -0.5610    0.5970 C   0  0  0  0  0  0  0  0  0  0  0  0
    0.1590   -1.4260    1.8090 C   0  0  0  0  0  0  0  0  0  0  0  0
   -1.0380    2.3480   -2.8040 C   0  0  0  0  0  0  0  0  0  0  0  0
   -2.6120    1.5400   -1.1870 O   0  0  0  0  0  0  0  0  0  0  0  0
   -1.1580   -1.6260    2.2450 C   0  0  0  0  0  0  0  0  0  0  0  0
   -1.8880    3.4300   -3.1380 C   0  0  0  0  0  0  0  0  0  0  0  0
    0.0300    2.0300   -3.5970 C   0  0  0  0  0  0  0  0  0  0  0  0
   -1.4250   -2.4140    3.3670 C   0  0  0  0  0  0  0  0  0  0  0  0
   -0.4980    3.8810   -5.0620 C   0  0  0  0  0  0  0  0  0  0  0  0
   -1.5990    4.1950   -4.2700 C   0  0  0  0  0  0  0  0  0  0  0  0
    0.3140    2.7980   -4.7280 C   0  0  0  0  0  0  0  0  0  0  0  0
   -0.1540    4.8270   -6.4360 Cl  0  0  0  0  0  0  0  0  0  0  0  0
   -2.7130   -2.5940    3.7610 O   0  0  0  0  0  0  0  0  0  0  0  0
    1.2100   -2.0170    2.5250 C   0  0  0  0  0  0  0  0  0  0  0  0
    0.9400   -2.8060    3.6490 C   0  0  0  0  0  0  0  0  0  0  0  0
    1.8060   -0.6030    0.0040 C   0  0  0  0  0  0  0  0  0  0  0  0
   -0.3750   -3.0040    4.0670 C   0  0  0  0  0  0  0  0  0  0  0  0
    0.6020    0.9580   -1.3670 H   0  0  0  0  0  0  0  0  0  0  0  0
   -1.9750   -1.1660    1.7080 H   0  0  0  0  0  0  0  0  0  0  0  0
   -2.7480    3.6600   -2.5260 H   0  0  0  0  0  0  0  0  0  0  0  0
    0.6540    1.1840   -3.3480 H   0  0  0  0  0  0  0  0  0  0  0  0
   -2.2300    5.0310   -4.5310 H   0  0  0  0  0  0  0  0  0  0  0  0
    1.1650    2.5520   -5.3460 H   0  0  0  0  0  0  0  0  0  0  0  0
   -2.8260   -3.1460    4.5380 H   0  0  0  0  0  0  0  0  0  0  0  0
    2.2310   -1.8630    2.2080 H   0  0  0  0  0  0  0  0  0  0  0  0
    1.7530   -3.2630    4.1940 H   0  0  0  0  0  0  0  0  0  0  0  0
    2.4320   -1.2740    0.5920 H   0  0  0  0  0  0  0  0  0  0  0  0
    2.2360    0.3980    0.0160 H   0  0  0  0  0  0  0  0  0  0  0  0
    1.7520   -0.9630   -1.0230 H   0  0  0  0  0  0  0  0  0  0  0  0
   -0.5800   -3.6150    4.9340 H   0  0  0  0  0  0  0  0  0  0  0  0
  1  3  1  0  0  0  0
  1  4  2  0  0  0  0
  2  3  1  0  0  0  0
  2  6  1  0  0  0  0
  2  7  2  0  0  0  0
  3 21  1  0  0  0  0
  4  5  1  0  0  0  0
  4 19  1  0  0  0  0
  5  8  2  0  0  0  0
  5 17  1  0  0  0  0
  6  9  2  0  0  0  0
  6 10  1  0  0  0  0
  8 11  1  0  0  0  0
  8 22  1  0  0  0  0
  9 13  1  0  0  0  0
  9 23  1  0  0  0  0
 10 14  2  0  0  0  0
 10 24  1  0  0  0  0
 11 16  1  0  0  0  0
 11 20  2  0  0  0  0
 12 13  2  0  0  0  0
 12 14  1  0  0  0  0
 12 15  1  0  0  0  0
 13 25  1  0  0  0  0
 14 26  1  0  0  0  0
 16 27  1  0  0  0  0
 17 18  2  0  0  0  0
 17 28  1  0  0  0  0
 18 20  1  0  0  0  0
 18 29  1  0  0  0  0
 19 30  1  0  0  0  0
 19 31  1  0  0  0  0
 19 32  1  0  0  0  0
 20 33  1  0  0  0  0
M  END
>  <$CLUSTER>
884

>  <INDEX>
575163

$$$$
Chem T&I NSB 0054126
  MOE2020           3D

 34 35  0  0  0  0  0  0  0  0999 V2000
    0.3620    0.6510   -0.0820 N   0  3  0  0  0  0  0  0  0  0  0  0
   -0.2920   -0.6470    0.0810 C   0  0  0  0  0  0  0  0  0  0  0  0
   -3.4770   -6.4440    3.4840 N   0  0  0  0  0  0  0  0  0  0  0  0
    1.6040    0.6970   -0.1070 O   0  5  0  0  0  0  0  0  0  0  0  0
   -2.5250   -4.7190    2.0250 C   0  0  0  0  0  0  0  0  0  0  0  0
   -0.3660    1.6520   -0.1880 O   0  0  0  0  0  0  0  0  0  0  0  0
   -4.1800   -8.2650    4.8450 C   0  0  0  0  0  0  0  0  0  0  0  0
   -3.1580   -5.9350    2.1980 N   0  0  0  0  0  0  0  0  0  0  0  0
   -4.5970   -9.6160    4.9160 C   0  0  0  0  0  0  0  0  0  0  0  0
   -2.1920   -3.9930    2.9510 O   0  0  0  0  0  0  0  0  0  0  0  0
   -3.8440   -7.6400    3.5250 C   0  0  0  0  0  0  0  0  0  0  0  0
    0.4780   -1.7400    0.1970 C   0  0  0  0  0  0  0  0  0  0  0  0
   -1.7850   -0.6130    0.1000 C   0  0  0  0  0  0  0  0  0  0  0  0
   -2.2940   -4.3960    0.5560 C   0  0  0  0  0  0  0  0  0  0  0  0
   -1.6040   -3.0660    0.3740 C   0  0  0  0  0  0  0  0  0  0  0  0
   -4.7530  -10.6390    3.5320 Cl  0  0  0  0  0  0  0  0  0  0  0  0
   -0.2040   -2.9870    0.3510 C   0  0  0  0  0  0  0  0  0  0  0  0
   -2.3510   -1.8860    0.2560 C   0  0  0  0  0  0  0  0  0  0  0  0
   -4.0860   -7.5210    6.0100 C   0  0  0  0  0  0  0  0  0  0  0  0
   -4.9080  -10.1800    6.1600 C   0  0  0  0  0  0  0  0  0  0  0  0
   -4.3950   -8.0870    7.2480 C   0  0  0  0  0  0  0  0  0  0  0  0
   -4.8060   -9.4160    7.3230 C   0  0  0  0  0  0  0  0  0  0  0  0
   -3.4020   -6.4790    1.3830 H   0  0  0  0  0  0  0  0  0  0  0  0
   -3.9180   -8.2180    2.6150 H   0  0  0  0  0  0  0  0  0  0  0  0
    1.5560   -1.6810    0.1750 H   0  0  0  0  0  0  0  0  0  0  0  0
   -2.3650    0.2930    0.0040 H   0  0  0  0  0  0  0  0  0  0  0  0
   -3.2570   -4.3660    0.0460 H   0  0  0  0  0  0  0  0  0  0  0  0
   -1.6740   -5.1780    0.1170 H   0  0  0  0  0  0  0  0  0  0  0  0
    0.3750   -3.8930    0.4520 H   0  0  0  0  0  0  0  0  0  0  0  0
   -3.4280   -1.9620    0.2870 H   0  0  0  0  0  0  0  0  0  0  0  0
   -3.7700   -6.4900    5.9600 H   0  0  0  0  0  0  0  0  0  0  0  0
   -5.2280  -11.2100    6.2190 H   0  0  0  0  0  0  0  0  0  0  0  0
   -4.3150   -7.4950    8.1480 H   0  0  0  0  0  0  0  0  0  0  0  0
   -5.0450   -9.8540    8.2800 H   0  0  0  0  0  0  0  0  0  0  0  0
  1  2  1  0  0  0  0
  1  4  1  0  0  0  0
  1  6  2  0  0  0  0
  2 12  2  0  0  0  0
  2 13  1  0  0  0  0
  3  8  1  0  0  0  0
  3 11  2  0  0  0  0
  5  8  1  0  0  0  0
  5 10  2  0  0  0  0
  5 14  1  0  0  0  0
  7  9  2  0  0  0  0
  7 11  1  0  0  0  0
  7 19  1  0  0  0  0
  8 23  1  0  0  0  0
  9 16  1  0  0  0  0
  9 20  1  0  0  0  0
 11 24  1  0  0  0  0
 12 17  1  0  0  0  0
 12 25  1  0  0  0  0
 13 18  2  0  0  0  0
 13 26  1  0  0  0  0
 14 15  1  0  0  0  0
 14 27  1  0  0  0  0
 14 28  1  0  0  0  0
 15 17  2  0  0  0  0
 15 18  1  0  0  0  0
 17 29  1  0  0  0  0
 18 30  1  0  0  0  0
 19 21  2  0  0  0  0
 19 31  1  0  0  0  0
 20 22  2  0  0  0  0
 20 32  1  0  0  0  0
 21 22  1  0  0  0  0
 21 33  1  0  0  0  0
 22 34  1  0  0  0  0
M  CHG  1   1   1
M  CHG  1   4  -1
M  END
>  <$CLUSTER>
885

>  <INDEX>
572479

$$$$
Chem T&I NSB 0026885
  MOE2020           3D

 19 19  0  0  0  0  0  0  0  0999 V2000
   -2.1990    0.0100    0.4520 C   0  0  0  0  0  0  0  0  0  0  0  0
   -0.8920    0.1200    0.9090 N   0  0  0  0  0  0  0  0  0  0  0  0
    1.5630   -0.6600   -1.8160 C   0  0  0  0  0  0  0  0  0  0  0  0
    0.3360   -0.4680   -1.1720 C   0  0  0  0  0  0  0  0  0  0  0  0
   -3.1880    0.3230    1.5480 C   0  0  0  0  0  0  0  0  0  0  0  0
    0.2980   -0.0960    0.1750 C   0  0  0  0  0  0  0  0  0  0  0  0
    2.7590   -0.4830   -1.1240 C   0  0  0  0  0  0  0  0  0  0  0  0
   -2.5830   -0.2950   -0.6720 O   0  0  0  0  0  0  0  0  0  0  0  0
    2.7310   -0.1130    0.2180 C   0  0  0  0  0  0  0  0  0  0  0  0
    1.4970   -1.0140   -3.1030 F   0  0  0  0  0  0  0  0  0  0  0  0
   -4.2180    1.7270    1.0810 Cl  0  0  0  0  0  0  0  0  0  0  0  0
   -4.2510   -1.0990    1.8580 Cl  0  0  0  0  0  0  0  0  0  0  0  0
    1.5080    0.0790    0.8630 C   0  0  0  0  0  0  0  0  0  0  0  0
    3.9640   -0.6470   -1.6680 F   0  0  0  0  0  0  0  0  0  0  0  0
   -0.7780    0.3850    1.8770 H   0  0  0  0  0  0  0  0  0  0  0  0
   -0.5860   -0.6080   -1.7180 H   0  0  0  0  0  0  0  0  0  0  0  0
   -2.6270    0.5650    2.4510 H   0  0  0  0  0  0  0  0  0  0  0  0
    3.6550    0.0250    0.7600 H   0  0  0  0  0  0  0  0  0  0  0  0
    1.4930    0.3660    1.9040 H   0  0  0  0  0  0  0  0  0  0  0  0
  1  2  1  0  0  0  0
  1  5  1  0  0  0  0
  1  8  2  0  0  0  0
  2  6  1  0  0  0  0
  2 15  1  0  0  0  0
  3  4  2  0  0  0  0
  3  7  1  0  0  0  0
  3 10  1  0  0  0  0
  4  6  1  0  0  0  0
  4 16  1  0  0  0  0
  5 11  1  0  0  0  0
  5 12  1  0  0  0  0
  5 17  1  0  0  0  0
  6 13  2  0  0  0  0
  7  9  2  0  0  0  0
  7 14  1  0  0  0  0
  9 13  1  0  0  0  0
  9 18  1  0  0  0  0
 13 19  1  0  0  0  0
M  END
>  <$CLUSTER>
886

>  <INDEX>
569510

$$$$
Chem T&I NSB 0047332
  MOE2020           3D

 38 39  0  0  0  0  0  0  0  0999 V2000
    3.3310   -1.0960    1.9610 C   0  0  0  0  0  0  0  0  0  0  0  0
    2.2580   -1.0280    0.9750 N   0  0  0  0  0  0  0  0  0  0  0  0
    1.0760   -0.5490    1.4200 N   0  0  0  0  0  0  0  0  0  0  0  0
   -1.6330    0.7730   -1.2970 N   0  3  0  0  0  0  0  0  0  0  0  0
    0.0990   -0.5130    0.5610 C   0  0  0  0  0  0  0  0  0  0  0  0
    4.6020   -1.6540    1.3180 C   0  0  0  0  0  0  0  0  0  0  0  0
    3.2840   -0.7760    3.1170 O   0  0  0  0  0  0  0  0  0  0  0  0
   -1.2420    0.0020    1.0400 C   0  0  0  0  0  0  0  0  0  0  0  0
    0.1520   -0.9270   -0.8950 C   0  0  0  0  0  0  0  0  0  0  0  0
    5.5030   -2.2540    2.2300 C   0  0  0  0  0  0  0  0  0  0  0  0
    4.9210   -1.5410   -0.0070 C   0  0  0  0  0  0  0  0  0  0  0  0
   -1.6460    1.1820    0.1630 C   0  0  0  0  0  0  0  0  0  0  0  0
   -0.2740    0.2670   -1.7450 C   0  0  0  0  0  0  0  0  0  0  0  0
    7.0230   -2.6690    0.3970 C   0  0  0  0  0  0  0  0  0  0  0  0
    6.1300   -2.0550   -0.4800 C   0  0  0  0  0  0  0  0  0  0  0  0
    6.7110   -2.7660    1.7510 C   0  0  0  0  0  0  0  0  0  0  0  0
    8.6250   -3.3610   -0.2180 Br  0  0  0  0  0  0  0  0  0  0  0  0
   -2.1220    1.8880   -2.1830 C   0  0  0  0  0  0  0  0  0  0  0  0
   -3.6160    2.1440   -2.0170 C   0  0  0  0  0  0  0  0  0  0  0  0
    2.3910   -1.3210    0.0180 H   0  0  0  0  0  0  0  0  0  0  0  0
   -2.2760   -0.0010   -1.3880 H   0  0  0  0  0  0  0  0  0  0  0  0
   -1.1630    0.3250    2.0780 H   0  0  0  0  0  0  0  0  0  0  0  0
   -1.9890   -0.7880    0.9610 H   0  0  0  0  0  0  0  0  0  0  0  0
   -0.5260   -1.7630   -1.0660 H   0  0  0  0  0  0  0  0  0  0  0  0
    1.1670   -1.2240   -1.1580 H   0  0  0  0  0  0  0  0  0  0  0  0
    5.2600   -2.3150    3.2810 H   0  0  0  0  0  0  0  0  0  0  0  0
    4.2380   -1.0540   -0.6870 H   0  0  0  0  0  0  0  0  0  0  0  0
   -2.6490    1.5090    0.4370 H   0  0  0  0  0  0  0  0  0  0  0  0
   -0.9430    2.0010    0.3140 H   0  0  0  0  0  0  0  0  0  0  0  0
    0.4600    1.0650   -1.6380 H   0  0  0  0  0  0  0  0  0  0  0  0
   -0.3300   -0.0370   -2.7900 H   0  0  0  0  0  0  0  0  0  0  0  0
    6.3740   -1.9770   -1.5290 H   0  0  0  0  0  0  0  0  0  0  0  0
    7.4040   -3.2380    2.4320 H   0  0  0  0  0  0  0  0  0  0  0  0
   -1.9250    1.6230   -3.2220 H   0  0  0  0  0  0  0  0  0  0  0  0
   -1.5800    2.7990   -1.9310 H   0  0  0  0  0  0  0  0  0  0  0  0
   -4.1700    1.2390   -2.2660 H   0  0  0  0  0  0  0  0  0  0  0  0
   -3.9220    2.9520   -2.6820 H   0  0  0  0  0  0  0  0  0  0  0  0
   -3.8240    2.4250   -0.9850 H   0  0  0  0  0  0  0  0  0  0  0  0
  1  2  1  0  0  0  0
  1  6  1  0  0  0  0
  1  7  2  0  0  0  0
  2  3  1  0  0  0  0
  2 20  1  0  0  0  0
  3  5  2  0  0  0  0
  4 12  1  0  0  0  0
  4 13  1  0  0  0  0
  4 18  1  0  0  0  0
  4 21  1  0  0  0  0
  5  8  1  0  0  0  0
  5  9  1  0  0  0  0
  6 10  1  0  0  0  0
  6 11  2  0  0  0  0
  8 12  1  0  0  0  0
  8 22  1  0  0  0  0
  8 23  1  0  0  0  0
  9 13  1  0  0  0  0
  9 24  1  0  0  0  0
  9 25  1  0  0  0  0
 10 16  2  0  0  0  0
 10 26  1  0  0  0  0
 11 15  1  0  0  0  0
 11 27  1  0  0  0  0
 12 28  1  0  0  0  0
 12 29  1  0  0  0  0
 13 30  1  0  0  0  0
 13 31  1  0  0  0  0
 14 15  2  0  0  0  0
 14 16  1  0  0  0  0
 14 17  1  0  0  0  0
 15 32  1  0  0  0  0
 16 33  1  0  0  0  0
 18 19  1  0  0  0  0
 18 34  1  0  0  0  0
 18 35  1  0  0  0  0
 19 36  1  0  0  0  0
 19 37  1  0  0  0  0
 19 38  1  0  0  0  0
M  CHG  1   4   1
M  END
>  <$CLUSTER>
887

>  <INDEX>
571691

$$$$
Chem T&I NSB 0052574
  MOE2020           3D

 38 39  0  0  0  0  0  0  0  0999 V2000
   -3.8640   -0.0160    3.0890 C   0  0  0  0  0  0  0  0  0  0  0  0
   -1.7390    0.1050    0.3560 C   0  0  0  0  0  0  0  0  0  0  0  0
   -0.2840    0.0660    0.0940 C   0  0  0  0  0  0  0  0  0  0  0  0
   -2.1780   -0.4940    1.5160 N   0  0  0  0  0  0  0  0  0  0  0  0
    0.2720    1.0640   -0.7170 C   0  0  0  0  0  0  0  0  0  0  0  0
   -3.4770   -0.5130    1.8560 N   0  0  0  0  0  0  0  0  0  0  0  0
    1.6400    1.0580   -0.9970 C   0  0  0  0  0  0  0  0  0  0  0  0
   -5.2300   -0.0920    3.2740 N   0  0  0  0  0  0  0  0  0  0  0  0
   -3.1000    0.4420    3.9370 O   0  0  0  0  0  0  0  0  0  0  0  0
    2.4550    0.0560   -0.4760 C   0  0  0  0  0  0  0  0  0  0  0  0
   -2.4930    0.6690   -0.4330 O   0  0  0  0  0  0  0  0  0  0  0  0
    0.5360   -0.9440    0.6060 C   0  0  0  0  0  0  0  0  0  0  0  0
    1.9030   -0.9450    0.3220 C   0  0  0  0  0  0  0  0  0  0  0  0
   -6.0370    0.2940    4.3660 C   0  0  0  0  0  0  0  0  0  0  0  0
   -7.7440    1.0240    6.4750 C   0  0  0  0  0  0  0  0  0  0  0  0
   -8.7840    1.4630    7.7480 Cl  0  0  0  0  0  0  0  0  0  0  0  0
   -5.5180    0.8650    5.5310 C   0  0  0  0  0  0  0  0  0  0  0  0
   -7.4230    0.0940    4.2700 C   0  0  0  0  0  0  0  0  0  0  0  0
   -6.3700    1.2270    6.5800 C   0  0  0  0  0  0  0  0  0  0  0  0
   -8.2710    0.4570    5.3190 C   0  0  0  0  0  0  0  0  0  0  0  0
    2.2310    2.1280   -1.8570 C   0  0  0  0  0  0  0  0  0  0  0  0
    3.9190    0.0560   -0.7730 C   0  0  0  0  0  0  0  0  0  0  0  0
   -1.5040   -0.9310    2.1280 H   0  0  0  0  0  0  0  0  0  0  0  0
   -0.3590    1.8390   -1.1260 H   0  0  0  0  0  0  0  0  0  0  0  0
   -4.1650   -0.8860    1.2180 H   0  0  0  0  0  0  0  0  0  0  0  0
   -5.7370   -0.4910    2.4970 H   0  0  0  0  0  0  0  0  0  0  0  0
    0.1120   -1.7240    1.2210 H   0  0  0  0  0  0  0  0  0  0  0  0
    2.5350   -1.7240    0.7220 H   0  0  0  0  0  0  0  0  0  0  0  0
   -4.4540    1.0280    5.6220 H   0  0  0  0  0  0  0  0  0  0  0  0
   -7.8380   -0.3450    3.3750 H   0  0  0  0  0  0  0  0  0  0  0  0
   -5.9600    1.6670    7.4770 H   0  0  0  0  0  0  0  0  0  0  0  0
   -9.3360    0.2980    5.2330 H   0  0  0  0  0  0  0  0  0  0  0  0
    1.4470    2.8180   -2.1690 H   0  0  0  0  0  0  0  0  0  0  0  0
    2.6890    1.6760   -2.7370 H   0  0  0  0  0  0  0  0  0  0  0  0
    2.9890    2.6710   -1.2920 H   0  0  0  0  0  0  0  0  0  0  0  0
    4.1610    0.9090   -1.4070 H   0  0  0  0  0  0  0  0  0  0  0  0
    4.1850   -0.8670   -1.2890 H   0  0  0  0  0  0  0  0  0  0  0  0
    4.4790    0.1260    0.1600 H   0  0  0  0  0  0  0  0  0  0  0  0
  1  6  1  0  0  0  0
  1  8  1  0  0  0  0
  1  9  2  0  0  0  0
  2  3  1  0  0  0  0
  2  4  1  0  0  0  0
  2 11  2  0  0  0  0
  3  5  1  0  0  0  0
  3 12  2  0  0  0  0
  4  6  1  0  0  0  0
  4 23  1  0  0  0  0
  5  7  2  0  0  0  0
  5 24  1  0  0  0  0
  6 25  1  0  0  0  0
  7 10  1  0  0  0  0
  7 21  1  0  0  0  0
  8 14  1  0  0  0  0
  8 26  1  0  0  0  0
 10 13  2  0  0  0  0
 10 22  1  0  0  0  0
 12 13  1  0  0  0  0
 12 27  1  0  0  0  0
 13 28  1  0  0  0  0
 14 17  2  0  0  0  0
 14 18  1  0  0  0  0
 15 16  1  0  0  0  0
 15 19  2  0  0  0  0
 15 20  1  0  0  0  0
 17 19  1  0  0  0  0
 17 29  1  0  0  0  0
 18 20  2  0  0  0  0
 18 30  1  0  0  0  0
 19 31  1  0  0  0  0
 20 32  1  0  0  0  0
 21 33  1  0  0  0  0
 21 34  1  0  0  0  0
 21 35  1  0  0  0  0
 22 36  1  0  0  0  0
 22 37  1  0  0  0  0
 22 38  1  0  0  0  0
M  END
>  <$CLUSTER>
888

>  <INDEX>
572311

$$$$
Specs AG-690/40129458
  MOE2020           3D

 38 40  0  0  0  0  0  0  0  0999 V2000
   -0.5700    2.0500    0.7830 N   0  0  0  0  0  0  0  0  0  0  0  0
   -0.2440    0.8690    0.3360 C   0  0  0  0  0  0  0  0  0  0  0  0
    0.0640    4.0230    1.9280 C   0  0  0  0  0  0  0  0  0  0  0  0
    0.4280    2.8370    1.2320 N   0  0  0  0  0  0  0  0  0  0  0  0
    1.2820    4.8060    2.3580 C   0  0  0  0  0  0  0  0  0  0  0  0
   -1.0670    4.4060    2.1480 O   0  0  0  0  0  0  0  0  0  0  0  0
    2.4980    4.7700    1.7300 C   0  0  0  0  0  0  0  0  0  0  0  0
   -3.4010   -1.5810   -1.2500 N   0  0  0  0  0  0  0  0  0  0  0  0
   -1.3280    0.0020   -0.2160 C   0  0  0  0  0  0  0  0  0  0  0  0
    1.1380    0.3320    0.3400 C   0  0  0  0  0  0  0  0  0  0  0  0
    3.5560    5.5560    2.1950 C   0  0  0  0  0  0  0  0  0  0  0  0
    5.1910    5.4650    1.3300 Br  0  0  0  0  0  0  0  0  0  0  0  0
    1.0770    5.6720    3.4670 C   0  0  0  0  0  0  0  0  0  0  0  0
    2.1370    6.4550    3.9270 C   0  0  0  0  0  0  0  0  0  0  0  0
   -2.2410   -2.1190   -0.8150 C   0  0  0  0  0  0  0  0  0  0  0  0
   -3.5090   -0.2380   -1.1560 C   0  0  0  0  0  0  0  0  0  0  0  0
   -2.5170    0.5890   -0.6510 C   0  0  0  0  0  0  0  0  0  0  0  0
   -1.1860   -1.3840   -0.2950 C   0  0  0  0  0  0  0  0  0  0  0  0
    1.7300   -0.0420    1.5480 C   0  0  0  0  0  0  0  0  0  0  0  0
    1.8250    0.2080   -0.8690 C   0  0  0  0  0  0  0  0  0  0  0  0
    3.3770    6.3960    3.2930 C   0  0  0  0  0  0  0  0  0  0  0  0
    3.0280   -0.5480    1.5420 C   0  0  0  0  0  0  0  0  0  0  0  0
    3.1230   -0.2990   -0.8650 C   0  0  0  0  0  0  0  0  0  0  0  0
    3.7240   -0.6770    0.3380 C   0  0  0  0  0  0  0  0  0  0  0  0
    1.3970    2.5940    1.0800 H   0  0  0  0  0  0  0  0  0  0  0  0
    2.6400    4.1310    0.8710 H   0  0  0  0  0  0  0  0  0  0  0  0
    0.1120    5.7230    3.9480 H   0  0  0  0  0  0  0  0  0  0  0  0
    1.9960    7.1080    4.7760 H   0  0  0  0  0  0  0  0  0  0  0  0
   -2.1280   -3.1910   -0.8760 H   0  0  0  0  0  0  0  0  0  0  0  0
   -4.4260    0.2210   -1.4960 H   0  0  0  0  0  0  0  0  0  0  0  0
   -2.6610    1.6580   -0.5960 H   0  0  0  0  0  0  0  0  0  0  0  0
   -0.2810   -1.8700    0.0390 H   0  0  0  0  0  0  0  0  0  0  0  0
    1.1880    0.0600    2.4760 H   0  0  0  0  0  0  0  0  0  0  0  0
    1.3560    0.5020   -1.7960 H   0  0  0  0  0  0  0  0  0  0  0  0
    4.1970    7.0000    3.6520 H   0  0  0  0  0  0  0  0  0  0  0  0
    3.4970   -0.8410    2.4700 H   0  0  0  0  0  0  0  0  0  0  0  0
    3.6650   -0.4000   -1.7940 H   0  0  0  0  0  0  0  0  0  0  0  0
    4.7300   -1.0700    0.3370 H   0  0  0  0  0  0  0  0  0  0  0  0
  1  2  2  0  0  0  0
  1  4  1  0  0  0  0
  2  9  1  0  0  0  0
  2 10  1  0  0  0  0
  3  4  1  0  0  0  0
  3  5  1  0  0  0  0
  3  6  2  0  0  0  0
  4 25  1  0  0  0  0
  5  7  2  0  0  0  0
  5 13  1  0  0  0  0
  7 11  1  0  0  0  0
  7 26  1  0  0  0  0
  8 15  1  0  0  0  0
  8 16  2  0  0  0  0
  9 17  2  0  0  0  0
  9 18  1  0  0  0  0
 10 19  2  0  0  0  0
 10 20  1  0  0  0  0
 11 12  1  0  0  0  0
 11 21  2  0  0  0  0
 13 14  2  0  0  0  0
 13 27  1  0  0  0  0
 14 21  1  0  0  0  0
 14 28  1  0  0  0  0
 15 18  2  0  0  0  0
 15 29  1  0  0  0  0
 16 17  1  0  0  0  0
 16 30  1  0  0  0  0
 17 31  1  0  0  0  0
 18 32  1  0  0  0  0
 19 22  1  0  0  0  0
 19 33  1  0  0  0  0
 20 23  2  0  0  0  0
 20 34  1  0  0  0  0
 21 35  1  0  0  0  0
 22 24  2  0  0  0  0
 22 36  1  0  0  0  0
 23 24  1  0  0  0  0
 23 37  1  0  0  0  0
 24 38  1  0  0  0  0
M  END
>  <$CLUSTER>
889

>  <INDEX>
497468

$$$$
Chem T&I SHCLME-000404
  MOE2020           3D

 40 41  0  0  0  0  0  0  0  0999 V2000
   -0.0690    0.4620   -0.3720 N   0  0  0  0  0  0  0  0  0  0  0  0
   -0.3940   -0.3480    0.6830 C   0  0  0  0  0  0  0  0  0  0  0  0
    0.6320   -0.4500    1.4970 N   0  0  0  0  0  0  0  0  0  0  0  0
    1.6570    0.3020    0.9740 N   0  0  0  0  0  0  0  0  0  0  0  0
    1.2340    0.8480   -0.1490 C   0  0  0  0  0  0  0  0  0  0  0  0
   -1.9370   -1.1110    0.8710 S   0  0  0  0  0  0  0  0  0  0  0  0
   -1.6210   -1.0940    3.6280 C   0  0  0  0  0  0  0  0  0  0  0  0
   -0.3610   -0.7720    4.0000 N   0  0  0  0  0  0  0  0  0  0  0  0
   -2.6160   -0.6210    4.1660 O   0  0  0  0  0  0  0  0  0  0  0  0
   -0.8970    0.8530   -1.4980 C   0  0  0  0  0  0  0  0  0  0  0  0
   -1.7010   -2.0170    2.4160 C   0  0  0  0  0  0  0  0  0  0  0  0
   -0.8170   -0.1340   -2.6500 C   0  0  0  0  0  0  0  0  0  0  0  0
   -1.8520   -0.7530   -3.1870 C   0  0  0  0  0  0  0  0  0  0  0  0
    0.1410    0.0330    5.0350 C   0  0  0  0  0  0  0  0  0  0  0  0
    1.2250    1.6360    7.0720 C   0  0  0  0  0  0  0  0  0  0  0  0
   -0.6980    0.7310    5.9090 C   0  0  0  0  0  0  0  0  0  0  0  0
    1.5300    0.1490    5.1950 C   0  0  0  0  0  0  0  0  0  0  0  0
    2.0680    0.9460    6.2070 C   0  0  0  0  0  0  0  0  0  0  0  0
   -0.1560    1.5290    6.9230 C   0  0  0  0  0  0  0  0  0  0  0  0
    2.0170    1.7330   -1.0410 C   0  0  0  0  0  0  0  0  0  0  0  0
    1.8700    2.3860    8.0260 O   0  0  0  0  0  0  0  0  0  0  0  0
    1.0520    3.1130    8.9360 C   0  0  0  0  0  0  0  0  0  0  0  0
    0.3550   -1.1900    3.4230 H   0  0  0  0  0  0  0  0  0  0  0  0
   -0.5680    1.8300   -1.8510 H   0  0  0  0  0  0  0  0  0  0  0  0
   -1.9330    0.9180   -1.1640 H   0  0  0  0  0  0  0  0  0  0  0  0
   -0.7740   -2.5870    2.3490 H   0  0  0  0  0  0  0  0  0  0  0  0
   -2.5390   -2.7010    2.5520 H   0  0  0  0  0  0  0  0  0  0  0  0
    0.1590   -0.3450   -3.0600 H   0  0  0  0  0  0  0  0  0  0  0  0
   -1.7040   -1.4410   -4.0060 H   0  0  0  0  0  0  0  0  0  0  0  0
   -2.8470   -0.5710   -2.8070 H   0  0  0  0  0  0  0  0  0  0  0  0
   -1.7700    0.6540    5.8010 H   0  0  0  0  0  0  0  0  0  0  0  0
    2.1910   -0.3840    4.5280 H   0  0  0  0  0  0  0  0  0  0  0  0
    3.1390    1.0270    6.3180 H   0  0  0  0  0  0  0  0  0  0  0  0
   -0.8120    2.0650    7.5930 H   0  0  0  0  0  0  0  0  0  0  0  0
    1.4020    2.0280   -1.8910 H   0  0  0  0  0  0  0  0  0  0  0  0
    2.8990    1.2010   -1.3970 H   0  0  0  0  0  0  0  0  0  0  0  0
    2.3260    2.6220   -0.4910 H   0  0  0  0  0  0  0  0  0  0  0  0
    1.6840    3.6610    9.6350 H   0  0  0  0  0  0  0  0  0  0  0  0
    0.4170    2.4200    9.4870 H   0  0  0  0  0  0  0  0  0  0  0  0
    0.4280    3.8150    8.3830 H   0  0  0  0  0  0  0  0  0  0  0  0
  1  2  1  0  0  0  0
  1  5  1  0  0  0  0
  1 10  1  0  0  0  0
  2  3  2  0  0  0  0
  2  6  1  0  0  0  0
  3  4  1  0  0  0  0
  4  5  2  0  0  0  0
  5 20  1  0  0  0  0
  6 11  1  0  0  0  0
  7  8  1  0  0  0  0
  7  9  2  0  0  0  0
  7 11  1  0  0  0  0
  8 14  1  0  0  0  0
  8 23  1  0  0  0  0
 10 12  1  0  0  0  0
 10 24  1  0  0  0  0
 10 25  1  0  0  0  0
 11 26  1  0  0  0  0
 11 27  1  0  0  0  0
 12 13  2  0  0  0  0
 12 28  1  0  0  0  0
 13 29  1  0  0  0  0
 13 30  1  0  0  0  0
 14 16  1  0  0  0  0
 14 17  2  0  0  0  0
 15 18  2  0  0  0  0
 15 19  1  0  0  0  0
 15 21  1  0  0  0  0
 16 19  2  0  0  0  0
 16 31  1  0  0  0  0
 17 18  1  0  0  0  0
 17 32  1  0  0  0  0
 18 33  1  0  0  0  0
 19 34  1  0  0  0  0
 20 35  1  0  0  0  0
 20 36  1  0  0  0  0
 20 37  1  0  0  0  0
 21 22  1  0  0  0  0
 22 38  1  0  0  0  0
 22 39  1  0  0  0  0
 22 40  1  0  0  0  0
M  END
>  <$CLUSTER>
890

>  <INDEX>
626517

$$$$
Princeton Biomolecular OSSK_194129
  MOE2020           3D

 32 34  0  0  1  0  0  0  0  0999 V2000
   -0.5290    0.2830    1.0410 N   0  0  0  0  0  0  0  0  0  0  0  0
   -0.2500    1.1390    0.0050 C   0  0  0  0  0  0  0  0  0  0  0  0
    0.0210   -0.9580    0.8260 C   0  0  0  0  0  0  0  0  0  0  0  0
    0.6860   -0.9010   -0.3980 N   0  0  0  0  0  0  0  0  0  0  0  0
    0.5790    0.3920   -1.0310 C   0  0  3  0  0  0  0  0  0  0  0  0
   -0.1240    0.3210   -2.3700 C   0  0  0  0  0  0  0  0  0  0  0  0
   -0.6050    2.3050   -0.0940 O   0  0  0  0  0  0  0  0  0  0  0  0
   -0.0510   -1.9290    1.5660 O   0  0  0  0  0  0  0  0  0  0  0  0
   -1.2890   -0.4200   -2.5840 C   0  0  0  0  0  0  0  0  0  0  0  0
   -1.9020   -0.4290   -3.8390 C   0  0  0  0  0  0  0  0  0  0  0  0
   -3.0640   -1.1190   -4.0950 O   0  0  0  0  0  0  0  0  0  0  0  0
   -3.1320   -2.4290   -3.6770 C   0  0  0  0  0  0  0  0  0  0  0  0
    0.4180    1.0670   -3.4260 C   0  0  0  0  0  0  0  0  0  0  0  0
   -0.1960    1.0570   -4.6820 C   0  0  0  0  0  0  0  0  0  0  0  0
   -1.3550    0.3100   -4.8880 C   0  0  0  0  0  0  0  0  0  0  0  0
   -2.1290   -3.3620   -3.9600 C   0  0  0  0  0  0  0  0  0  0  0  0
   -4.2940   -2.8250   -3.0110 C   0  0  0  0  0  0  0  0  0  0  0  0
   -4.4380   -4.1490   -2.5960 C   0  0  0  0  0  0  0  0  0  0  0  0
   -2.2790   -4.6850   -3.5420 C   0  0  0  0  0  0  0  0  0  0  0  0
   -3.4290   -5.0760   -2.8570 C   0  0  0  0  0  0  0  0  0  0  0  0
   -1.0690    0.5330    1.8570 H   0  0  0  0  0  0  0  0  0  0  0  0
    1.1880   -1.6800   -0.7990 H   0  0  0  0  0  0  0  0  0  0  0  0
    1.5360    0.8550   -1.2710 H   0  0  0  0  0  0  0  0  0  0  0  0
   -1.7190   -0.9900   -1.7730 H   0  0  0  0  0  0  0  0  0  0  0  0
    1.3130    1.6510   -3.2690 H   0  0  0  0  0  0  0  0  0  0  0  0
    0.2280    1.6290   -5.4940 H   0  0  0  0  0  0  0  0  0  0  0  0
   -1.8290    0.3040   -5.8590 H   0  0  0  0  0  0  0  0  0  0  0  0
   -1.2430   -3.0600   -4.4990 H   0  0  0  0  0  0  0  0  0  0  0  0
   -5.0790   -2.1080   -2.8180 H   0  0  0  0  0  0  0  0  0  0  0  0
   -5.3310   -4.4560   -2.0720 H   0  0  0  0  0  0  0  0  0  0  0  0
   -1.5030   -5.4070   -3.7490 H   0  0  0  0  0  0  0  0  0  0  0  0
   -3.5390   -6.0990   -2.5280 H   0  0  0  0  0  0  0  0  0  0  0  0
  1  2  1  0  0  0  0
  1  3  1  0  0  0  0
  1 21  1  0  0  0  0
  2  5  1  0  0  0  0
  2  7  2  0  0  0  0
  3  4  1  0  0  0  0
  3  8  2  0  0  0  0
  4  5  1  0  0  0  0
  4 22  1  0  0  0  0
  5  6  1  0  0  0  0
  5 23  1  0  0  0  0
  6  9  2  0  0  0  0
  6 13  1  0  0  0  0
  9 10  1  0  0  0  0
  9 24  1  0  0  0  0
 10 11  1  0  0  0  0
 10 15  2  0  0  0  0
 11 12  1  0  0  0  0
 12 16  1  0  0  0  0
 12 17  2  0  0  0  0
 13 14  2  0  0  0  0
 13 25  1  0  0  0  0
 14 15  1  0  0  0  0
 14 26  1  0  0  0  0
 15 27  1  0  0  0  0
 16 19  2  0  0  0  0
 16 28  1  0  0  0  0
 17 18  1  0  0  0  0
 17 29  1  0  0  0  0
 18 20  2  0  0  0  0
 18 30  1  0  0  0  0
 19 20  1  0  0  0  0
 19 31  1  0  0  0  0
 20 32  1  0  0  0  0
M  END
>  <$CLUSTER>
891

>  <INDEX>
579348

$$$$
Princeton Biomolecular OSSK_198284
  MOE2020           3D

 43 46  0  0  0  0  0  0  0  0999 V2000
    4.4180    1.5940    0.8140 S   0  0  0  0  0  0  0  0  0  0  0  0
   -0.4990   -2.1290   -0.9960 N   0  0  0  0  0  0  0  0  0  0  0  0
    1.1380   -0.5220   -0.2110 C   0  0  0  0  0  0  0  0  0  0  0  0
    0.8470   -1.8300   -0.8230 C   0  0  0  0  0  0  0  0  0  0  0  0
   -1.5890   -1.3360   -0.6590 C   0  0  0  0  0  0  0  0  0  0  0  0
    0.0760    0.3230    0.1510 C   0  0  0  0  0  0  0  0  0  0  0  0
    2.7480    1.0940    0.5780 C   0  0  0  0  0  0  0  0  0  0  0  0
   -1.2680   -0.0330   -0.0490 C   0  0  0  0  0  0  0  0  0  0  0  0
    2.4670   -0.1410    0.0000 C   0  0  0  0  0  0  0  0  0  0  0  0
    4.7840    0.9960    2.3330 N   0  0  0  0  0  0  0  0  0  0  0  0
    0.3700    1.5780    0.7390 C   0  0  0  0  0  0  0  0  0  0  0  0
    1.7080    1.9480    0.9450 C   0  0  0  0  0  0  0  0  0  0  0  0
    4.9010   -0.4360    2.5390 C   0  0  0  0  0  0  0  0  0  0  0  0
    4.4680    3.0440    0.8880 O   0  0  0  0  0  0  0  0  0  0  0  0
    5.2480    0.8870   -0.1470 O   0  0  0  0  0  0  0  0  0  0  0  0
    1.7520   -2.5920   -1.1510 O   0  0  0  0  0  0  0  0  0  0  0  0
   -2.7520   -1.6780   -0.8480 O   0  0  0  0  0  0  0  0  0  0  0  0
    4.0250   -2.5270    3.3790 C   0  0  0  0  0  0  0  0  0  0  0  0
    6.1030   -2.4950    2.1470 C   0  0  0  0  0  0  0  0  0  0  0  0
    3.9140   -1.1440    3.2310 C   0  0  0  0  0  0  0  0  0  0  0  0
    5.9960   -1.1120    1.9960 C   0  0  0  0  0  0  0  0  0  0  0  0
    5.1180   -3.2020    2.8370 C   0  0  0  0  0  0  0  0  0  0  0  0
   -0.6820    2.4320    1.1050 C   0  0  0  0  0  0  0  0  0  0  0  0
   -2.3060    0.8270    0.3210 C   0  0  0  0  0  0  0  0  0  0  0  0
   -2.0100    2.0580    0.8980 C   0  0  0  0  0  0  0  0  0  0  0  0
    2.9740   -3.2880    4.1200 C   0  0  0  0  0  0  0  0  0  0  0  0
    7.2770   -3.2170    1.5680 C   0  0  0  0  0  0  0  0  0  0  0  0
   -0.7090   -3.0240   -1.4140 H   0  0  0  0  0  0  0  0  0  0  0  0
    3.2720   -0.8020   -0.2840 H   0  0  0  0  0  0  0  0  0  0  0  0
    4.9230    1.6310    3.1060 H   0  0  0  0  0  0  0  0  0  0  0  0
    1.9350    2.9040    1.3930 H   0  0  0  0  0  0  0  0  0  0  0  0
    3.0670   -0.6210    3.6500 H   0  0  0  0  0  0  0  0  0  0  0  0
    6.7580   -0.5650    1.4600 H   0  0  0  0  0  0  0  0  0  0  0  0
    5.2020   -4.2730    2.9510 H   0  0  0  0  0  0  0  0  0  0  0  0
   -0.4610    3.3900    1.5520 H   0  0  0  0  0  0  0  0  0  0  0  0
   -3.3340    0.5370    0.1600 H   0  0  0  0  0  0  0  0  0  0  0  0
   -2.8090    2.7250    1.1860 H   0  0  0  0  0  0  0  0  0  0  0  0
    2.2040   -2.5990    4.4680 H   0  0  0  0  0  0  0  0  0  0  0  0
    3.4250   -3.7920    4.9750 H   0  0  0  0  0  0  0  0  0  0  0  0
    2.5260   -4.0280    3.4570 H   0  0  0  0  0  0  0  0  0  0  0  0
    7.9330   -2.5030    1.0700 H   0  0  0  0  0  0  0  0  0  0  0  0
    6.9290   -3.9550    0.8460 H   0  0  0  0  0  0  0  0  0  0  0  0
    7.8240   -3.7190    2.3660 H   0  0  0  0  0  0  0  0  0  0  0  0
  1  7  1  0  0  0  0
  1 10  1  0  0  0  0
  1 14  2  0  0  0  0
  1 15  2  0  0  0  0
  2  4  1  0  0  0  0
  2  5  1  0  0  0  0
  2 28  1  0  0  0  0
  3  4  1  0  0  0  0
  3  6  1  0  0  0  0
  3  9  2  0  0  0  0
  4 16  2  0  0  0  0
  5  8  1  0  0  0  0
  5 17  2  0  0  0  0
  6  8  1  0  0  0  0
  6 11  2  0  0  0  0
  7  9  1  0  0  0  0
  7 12  2  0  0  0  0
  8 24  2  0  0  0  0
  9 29  1  0  0  0  0
 10 13  1  0  0  0  0
 10 30  1  0  0  0  0
 11 12  1  0  0  0  0
 11 23  1  0  0  0  0
 12 31  1  0  0  0  0
 13 20  2  0  0  0  0
 13 21  1  0  0  0  0
 18 20  1  0  0  0  0
 18 22  2  0  0  0  0
 18 26  1  0  0  0  0
 19 21  2  0  0  0  0
 19 22  1  0  0  0  0
 19 27  1  0  0  0  0
 20 32  1  0  0  0  0
 21 33  1  0  0  0  0
 22 34  1  0  0  0  0
 23 25  2  0  0  0  0
 23 35  1  0  0  0  0
 24 25  1  0  0  0  0
 24 36  1  0  0  0  0
 25 37  1  0  0  0  0
 26 38  1  0  0  0  0
 26 39  1  0  0  0  0
 26 40  1  0  0  0  0
 27 41  1  0  0  0  0
 27 42  1  0  0  0  0
 27 43  1  0  0  0  0
M  END
>  <$CLUSTER>
892

>  <INDEX>
579602

$$$$
Labotest LT01784615
  MOE2020           3D

 39 40  0  0  0  0  0  0  0  0999 V2000
    1.1870   -0.1700   -0.4990 C   0  0  0  0  0  0  0  0  0  0  0  0
    0.0990   -0.4870    0.2960 N   0  0  0  0  0  0  0  0  0  0  0  0
    2.3910   -1.0160   -0.1830 C   0  0  0  0  0  0  0  0  0  0  0  0
    1.2150    0.7050   -1.3600 O   0  0  0  0  0  0  0  0  0  0  0  0
    2.3310   -2.2870    0.3270 C   0  0  0  0  0  0  0  0  0  0  0  0
    3.6520   -0.4470   -0.5230 C   0  0  0  0  0  0  0  0  0  0  0  0
   -1.1850    0.1970    0.1910 C   0  0  0  0  0  0  0  0  0  0  0  0
    4.7430   -2.4590    0.2520 C   0  0  0  0  0  0  0  0  0  0  0  0
    4.8190   -1.1780   -0.2900 C   0  0  0  0  0  0  0  0  0  0  0  0
    3.5010   -3.0140    0.5570 C   0  0  0  0  0  0  0  0  0  0  0  0
   -2.3210   -0.7550    0.5510 C   0  0  0  0  0  0  0  0  0  0  0  0
   -1.2010    1.4310    1.0880 C   0  0  0  0  0  0  0  0  0  0  0  0
   -3.6800   -0.0580    0.5150 C   0  0  0  0  0  0  0  0  0  0  0  0
   -2.5530    2.1400    1.0550 C   0  0  0  0  0  0  0  0  0  0  0  0
   -3.7000    1.1860    1.4140 C   0  0  0  0  0  0  0  0  0  0  0  0
    5.8210   -3.2770    0.5140 O   0  0  0  0  0  0  0  0  0  0  0  0
    7.1110   -2.7560    0.2140 C   0  0  0  0  0  0  0  0  0  0  0  0
   -5.0480    1.9000    1.3190 C   0  0  0  0  0  0  0  0  0  0  0  0
    0.1990   -1.2240    0.9790 H   0  0  0  0  0  0  0  0  0  0  0  0
    1.3720   -2.7290    0.5530 H   0  0  0  0  0  0  0  0  0  0  0  0
    3.7050    0.5410   -0.9570 H   0  0  0  0  0  0  0  0  0  0  0  0
   -1.3290    0.5240   -0.8390 H   0  0  0  0  0  0  0  0  0  0  0  0
    5.7810   -0.7500   -0.5300 H   0  0  0  0  0  0  0  0  0  0  0  0
    3.4430   -4.0090    0.9720 H   0  0  0  0  0  0  0  0  0  0  0  0
   -2.1510   -1.1440    1.5550 H   0  0  0  0  0  0  0  0  0  0  0  0
   -2.3290   -1.5800   -0.1610 H   0  0  0  0  0  0  0  0  0  0  0  0
   -0.4310    2.1240    0.7480 H   0  0  0  0  0  0  0  0  0  0  0  0
   -0.9880    1.1250    2.1120 H   0  0  0  0  0  0  0  0  0  0  0  0
   -4.4440   -0.7550    0.8580 H   0  0  0  0  0  0  0  0  0  0  0  0
   -3.8960    0.2430   -0.5100 H   0  0  0  0  0  0  0  0  0  0  0  0
   -2.7210    2.5340    0.0530 H   0  0  0  0  0  0  0  0  0  0  0  0
   -2.5390    2.9620    1.7710 H   0  0  0  0  0  0  0  0  0  0  0  0
   -3.5580    0.8610    2.4450 H   0  0  0  0  0  0  0  0  0  0  0  0
    7.8700   -3.4970    0.4660 H   0  0  0  0  0  0  0  0  0  0  0  0
    7.2810   -1.8500    0.7950 H   0  0  0  0  0  0  0  0  0  0  0  0
    7.1700   -2.5220   -0.8490 H   0  0  0  0  0  0  0  0  0  0  0  0
   -5.2110    2.2340    0.2940 H   0  0  0  0  0  0  0  0  0  0  0  0
   -5.0510    2.7610    1.9870 H   0  0  0  0  0  0  0  0  0  0  0  0
   -5.8440    1.2140    1.6080 H   0  0  0  0  0  0  0  0  0  0  0  0
  1  2  1  0  0  0  0
  1  3  1  0  0  0  0
  1  4  2  0  0  0  0
  2  7  1  0  0  0  0
  2 19  1  0  0  0  0
  3  5  1  0  0  0  0
  3  6  2  0  0  0  0
  5 10  2  0  0  0  0
  5 20  1  0  0  0  0
  6  9  1  0  0  0  0
  6 21  1  0  0  0  0
  7 11  1  0  0  0  0
  7 12  1  0  0  0  0
  7 22  1  0  0  0  0
  8  9  2  0  0  0  0
  8 10  1  0  0  0  0
  8 16  1  0  0  0  0
  9 23  1  0  0  0  0
 10 24  1  0  0  0  0
 11 13  1  0  0  0  0
 11 25  1  0  0  0  0
 11 26  1  0  0  0  0
 12 14  1  0  0  0  0
 12 27  1  0  0  0  0
 12 28  1  0  0  0  0
 13 15  1  0  0  0  0
 13 29  1  0  0  0  0
 13 30  1  0  0  0  0
 14 15  1  0  0  0  0
 14 31  1  0  0  0  0
 14 32  1  0  0  0  0
 15 18  1  0  0  0  0
 15 33  1  0  0  0  0
 16 17  1  0  0  0  0
 17 34  1  0  0  0  0
 17 35  1  0  0  0  0
 17 36  1  0  0  0  0
 18 37  1  0  0  0  0
 18 38  1  0  0  0  0
 18 39  1  0  0  0  0
M  END
>  <$CLUSTER>
893

>  <INDEX>
323847

$$$$
Princeton Biomolecular OSSK_285466
  MOE2020           3D

 43 45  0  0  0  0  0  0  0  0999 V2000
   -1.7910    0.5730    0.7760 C   0  0  0  0  0  0  0  0  0  0  0  0
   -2.0890    1.0960    2.0260 C   0  0  0  0  0  0  0  0  0  0  0  0
   -0.4740    0.1320    0.5350 C   0  0  0  0  0  0  0  0  0  0  0  0
   -1.2520    1.2380    3.0630 N   0  0  0  0  0  0  0  0  0  0  0  0
    0.4050    0.2630    1.5720 N   0  0  0  0  0  0  0  0  0  0  0  0
   -2.9050    0.5880   -0.0320 N   0  0  0  0  0  0  0  0  0  0  0  0
   -3.4130    1.4330    1.9620 N   0  0  0  0  0  0  0  0  0  0  0  0
   -0.0230    0.7930    2.7420 C   0  0  0  0  0  0  0  0  0  0  0  0
   -3.8590    1.1090    0.7100 C   0  0  0  0  0  0  0  0  0  0  0  0
   -0.1320   -0.4040   -0.7180 N   0  0  0  0  0  0  0  0  0  0  0  0
    0.9880    0.8790    3.7540 N   0  0  0  0  0  0  0  0  0  0  0  0
    1.0720   -0.9140   -1.2400 C   0  0  0  0  0  0  0  0  0  0  0  0
   -4.2090    2.0190    3.0200 C   0  0  0  0  0  0  0  0  0  0  0  0
    3.4110   -1.9650   -2.4290 C   0  0  0  0  0  0  0  0  0  0  0  0
    1.0730   -1.3840   -2.5680 C   0  0  0  0  0  0  0  0  0  0  0  0
    2.2760   -0.9860   -0.5270 C   0  0  0  0  0  0  0  0  0  0  0  0
    3.4340   -1.5070   -1.1160 C   0  0  0  0  0  0  0  0  0  0  0  0
    2.2280   -1.9040   -3.1570 C   0  0  0  0  0  0  0  0  0  0  0  0
    2.9820    2.1580    5.3760 O   0  0  0  0  0  0  0  0  0  0  0  0
    0.6720    1.4270    5.0560 C   0  0  0  0  0  0  0  0  0  0  0  0
    1.9010    1.4090    5.9460 C   0  0  0  0  0  0  0  0  0  0  0  0
    4.6500   -2.5190   -3.0500 C   0  0  0  0  0  0  0  0  0  0  0  0
   -4.1130    3.5340    3.0410 C   0  0  0  0  0  0  0  0  0  0  0  0
   -4.8730    1.2620    0.3710 H   0  0  0  0  0  0  0  0  0  0  0  0
   -0.9010   -0.4280   -1.3730 H   0  0  0  0  0  0  0  0  0  0  0  0
    1.9250    0.5560    3.5580 H   0  0  0  0  0  0  0  0  0  0  0  0
   -3.8590    1.6320    3.9770 H   0  0  0  0  0  0  0  0  0  0  0  0
   -5.2510    1.7360    2.8730 H   0  0  0  0  0  0  0  0  0  0  0  0
    0.1600   -1.3410   -3.1440 H   0  0  0  0  0  0  0  0  0  0  0  0
    2.3110   -0.6340    0.4930 H   0  0  0  0  0  0  0  0  0  0  0  0
    4.3510   -1.5540   -0.5470 H   0  0  0  0  0  0  0  0  0  0  0  0
    2.2020   -2.2580   -4.1770 H   0  0  0  0  0  0  0  0  0  0  0  0
    3.7230    2.1070    5.9840 H   0  0  0  0  0  0  0  0  0  0  0  0
   -0.1150    0.8290    5.5170 H   0  0  0  0  0  0  0  0  0  0  0  0
    0.3270    2.4540    4.9400 H   0  0  0  0  0  0  0  0  0  0  0  0
    1.6430    1.8420    6.9130 H   0  0  0  0  0  0  0  0  0  0  0  0
    2.2210    0.3760    6.0840 H   0  0  0  0  0  0  0  0  0  0  0  0
    5.4660   -2.4830   -2.3280 H   0  0  0  0  0  0  0  0  0  0  0  0
    4.9140   -1.9260   -3.9260 H   0  0  0  0  0  0  0  0  0  0  0  0
    4.4750   -3.5520   -3.3500 H   0  0  0  0  0  0  0  0  0  0  0  0
   -3.0740    3.8300    3.1880 H   0  0  0  0  0  0  0  0  0  0  0  0
   -4.7210    3.9250    3.8560 H   0  0  0  0  0  0  0  0  0  0  0  0
   -4.4740    3.9340    2.0940 H   0  0  0  0  0  0  0  0  0  0  0  0
  1  2  2  0  0  0  0
  1  3  1  0  0  0  0
  1  6  1  0  0  0  0
  2  4  1  0  0  0  0
  2  7  1  0  0  0  0
  3  5  2  0  0  0  0
  3 10  1  0  0  0  0
  4  8  2  0  0  0  0
  5  8  1  0  0  0  0
  6  9  2  0  0  0  0
  7  9  1  0  0  0  0
  7 13  1  0  0  0  0
  8 11  1  0  0  0  0
  9 24  1  0  0  0  0
 10 12  1  0  0  0  0
 10 25  1  0  0  0  0
 11 20  1  0  0  0  0
 11 26  1  0  0  0  0
 12 15  1  0  0  0  0
 12 16  2  0  0  0  0
 13 23  1  0  0  0  0
 13 27  1  0  0  0  0
 13 28  1  0  0  0  0
 14 17  2  0  0  0  0
 14 18  1  0  0  0  0
 14 22  1  0  0  0  0
 15 18  2  0  0  0  0
 15 29  1  0  0  0  0
 16 17  1  0  0  0  0
 16 30  1  0  0  0  0
 17 31  1  0  0  0  0
 18 32  1  0  0  0  0
 19 21  1  0  0  0  0
 19 33  1  0  0  0  0
 20 21  1  0  0  0  0
 20 34  1  0  0  0  0
 20 35  1  0  0  0  0
 21 36  1  0  0  0  0
 21 37  1  0  0  0  0
 22 38  1  0  0  0  0
 22 39  1  0  0  0  0
 22 40  1  0  0  0  0
 23 41  1  0  0  0  0
 23 42  1  0  0  0  0
 23 43  1  0  0  0  0
M  END
>  <$CLUSTER>
894

>  <INDEX>
580999

$$$$
Princeton Biomolecular OSSK_456441
  MOE2020           3D

 48 49  0  0  1  0  0  0  0  0999 V2000
    0.6980    0.4360    0.5500 C   0  0  0  0  0  0  0  0  0  0  0  0
   -0.5280    0.8980   -0.1510 C   0  0  0  0  0  0  0  0  0  0  0  0
   -1.1290   -0.0090   -1.0420 C   0  0  0  0  0  0  0  0  0  0  0  0
   -1.1520    2.1620   -0.0170 C   0  0  0  0  0  0  0  0  0  0  0  0
   -0.5970   -1.2950   -1.2750 O   0  0  0  0  0  0  0  0  0  0  0  0
    0.5560   -1.7300   -0.6440 C   0  0  0  0  0  0  0  0  0  0  0  0
   -2.0920    4.6300    1.9040 C   0  0  0  0  0  0  0  0  0  0  0  0
    1.1760   -0.7880    0.2870 C   0  0  0  0  0  0  0  0  0  0  0  0
   -2.6680    5.8720    1.8540 N   0  0  0  0  0  0  0  0  0  0  0  0
   -0.5870    3.0590    0.8480 O   0  0  0  0  0  0  0  0  0  0  0  0
   -4.6110    7.3550    2.0280 C   0  0  0  0  0  0  0  0  0  0  0  0
   -0.9950    4.4310    0.8620 C   0  0  3  0  0  0  0  0  0  0  0  0
   -3.7350    6.3230    2.7290 C   0  0  2  0  0  0  0  0  0  0  0  0
   -2.2870    0.2800   -1.7660 C   0  0  0  0  0  0  0  0  0  0  0  0
   -2.3260    2.4490   -0.7390 C   0  0  0  0  0  0  0  0  0  0  0  0
   -2.4640    3.7360    2.6650 O   0  0  0  0  0  0  0  0  0  0  0  0
    1.0320   -2.8400   -0.8470 O   0  0  0  0  0  0  0  0  0  0  0  0
   -2.8880    1.5160   -1.6080 C   0  0  0  0  0  0  0  0  0  0  0  0
   -5.3480    6.8270    1.0970 O   0  0  0  0  0  0  0  0  0  0  0  0
   -4.4670    8.5530    2.3040 O   0  5  0  0  0  0  0  0  0  0  0  0
    1.4590    1.2910    1.5370 C   0  0  0  0  0  0  0  0  0  0  0  0
    0.2380    5.2480    1.2430 C   0  0  0  0  0  0  0  0  0  0  0  0
   -3.1600    6.8850    4.0260 C   0  0  0  0  0  0  0  0  0  0  0  0
   -4.1310    1.8590   -2.3610 C   0  0  0  0  0  0  0  0  0  0  0  0
    0.8420    1.2760    2.9310 C   0  0  0  0  0  0  0  0  0  0  0  0
    1.6130    2.1360    3.9080 C   0  0  0  0  0  0  0  0  0  0  0  0
    2.0770   -1.0990    0.7950 H   0  0  0  0  0  0  0  0  0  0  0  0
   -2.3260    6.5200    1.1590 H   0  0  0  0  0  0  0  0  0  0  0  0
   -1.3870    4.7390   -0.1070 H   0  0  0  0  0  0  0  0  0  0  0  0
   -4.3610    5.4660    2.9770 H   0  0  0  0  0  0  0  0  0  0  0  0
   -2.7080   -0.4510   -2.4400 H   0  0  0  0  0  0  0  0  0  0  0  0
   -2.8000    3.4110   -0.6170 H   0  0  0  0  0  0  0  0  0  0  0  0
    2.4810    0.9190    1.6050 H   0  0  0  0  0  0  0  0  0  0  0  0
    1.4700    2.3180    1.1720 H   0  0  0  0  0  0  0  0  0  0  0  0
    0.6070    4.9180    2.2140 H   0  0  0  0  0  0  0  0  0  0  0  0
   -0.0280    6.3040    1.2950 H   0  0  0  0  0  0  0  0  0  0  0  0
    1.0150    5.1050    0.4920 H   0  0  0  0  0  0  0  0  0  0  0  0
   -2.5290    7.7450    3.8010 H   0  0  0  0  0  0  0  0  0  0  0  0
   -2.5660    6.1180    4.5220 H   0  0  0  0  0  0  0  0  0  0  0  0
   -3.9750    7.1940    4.6810 H   0  0  0  0  0  0  0  0  0  0  0  0
   -4.4460    2.8700   -2.1010 H   0  0  0  0  0  0  0  0  0  0  0  0
   -4.9200    1.1540   -2.1000 H   0  0  0  0  0  0  0  0  0  0  0  0
   -3.9340    1.8040   -3.4320 H   0  0  0  0  0  0  0  0  0  0  0  0
   -0.1800    1.6490    2.8660 H   0  0  0  0  0  0  0  0  0  0  0  0
    0.8320    0.2500    3.2990 H   0  0  0  0  0  0  0  0  0  0  0  0
    1.6300    3.1660    3.5510 H   0  0  0  0  0  0  0  0  0  0  0  0
    2.6340    1.7640    3.9930 H   0  0  0  0  0  0  0  0  0  0  0  0
    1.1300    2.0980    4.8850 H   0  0  0  0  0  0  0  0  0  0  0  0
  1  2  1  0  0  0  0
  1  8  2  0  0  0  0
  1 21  1  0  0  0  0
  2  3  1  0  0  0  0
  2  4  2  0  0  0  0
  3  5  1  0  0  0  0
  3 14  2  0  0  0  0
  4 10  1  0  0  0  0
  4 15  1  0  0  0  0
  5  6  1  0  0  0  0
  6  8  1  0  0  0  0
  6 17  2  0  0  0  0
  7  9  1  0  0  0  0
  7 12  1  0  0  0  0
  7 16  2  0  0  0  0
  8 27  1  0  0  0  0
  9 13  1  0  0  0  0
  9 28  1  0  0  0  0
 10 12  1  0  0  0  0
 11 13  1  0  0  0  0
 11 19  2  0  0  0  0
 11 20  1  0  0  0  0
 12 22  1  0  0  0  0
 12 29  1  0  0  0  0
 13 23  1  0  0  0  0
 13 30  1  0  0  0  0
 14 18  1  0  0  0  0
 14 31  1  0  0  0  0
 15 18  2  0  0  0  0
 15 32  1  0  0  0  0
 18 24  1  0  0  0  0
 21 25  1  0  0  0  0
 21 33  1  0  0  0  0
 21 34  1  0  0  0  0
 22 35  1  0  0  0  0
 22 36  1  0  0  0  0
 22 37  1  0  0  0  0
 23 38  1  0  0  0  0
 23 39  1  0  0  0  0
 23 40  1  0  0  0  0
 24 41  1  0  0  0  0
 24 42  1  0  0  0  0
 24 43  1  0  0  0  0
 25 26  1  0  0  0  0
 25 44  1  0  0  0  0
 25 45  1  0  0  0  0
 26 46  1  0  0  0  0
 26 47  1  0  0  0  0
 26 48  1  0  0  0  0
M  CHG  1  20  -1
M  END
>  <$CLUSTER>
895

>  <INDEX>
583715

$$$$
Lithuania 515534
  MOE2020           3D

 50 52  0  0  0  0  0  0  0  0999 V2000
    0.2440    0.1450    0.2010 N   0  0  0  0  0  0  0  0  0  0  0  0
   -0.4360   -2.2010    0.1970 C   0  0  0  0  0  0  0  0  0  0  0  0
   -0.3410   -0.9090   -0.5150 C   0  0  0  0  0  0  0  0  0  0  0  0
    0.9190   -0.0530    1.4120 C   0  0  0  0  0  0  0  0  0  0  0  0
    1.0220   -1.3370    1.8570 N   0  0  0  0  0  0  0  0  0  0  0  0
    0.4270   -2.4520    1.3630 C   0  0  0  0  0  0  0  0  0  0  0  0
   -1.2680   -3.1900   -0.1740 C   0  0  0  0  0  0  0  0  0  0  0  0
    0.1640    1.4800   -0.3520 C   0  0  0  0  0  0  0  0  0  0  0  0
    1.3840    0.8370    2.1240 O   0  0  0  0  0  0  0  0  0  0  0  0
   -0.6940   -0.8390   -1.6930 O   0  0  0  0  0  0  0  0  0  0  0  0
    0.5840   -3.5620    1.8670 O   0  0  0  0  0  0  0  0  0  0  0  0
   -4.1860   -3.1710   -3.2860 C   0  0  0  0  0  0  0  0  0  0  0  0
   -2.2920   -3.1890   -1.2660 C   0  0  0  0  0  0  0  0  0  0  0  0
   -0.9750    1.8990   -1.0650 C   0  0  0  0  0  0  0  0  0  0  0  0
    1.2130    2.4050   -0.1970 C   0  0  0  0  0  0  0  0  0  0  0  0
   -3.4730   -4.3320   -2.9980 C   0  0  0  0  0  0  0  0  0  0  0  0
   -3.9500   -2.0100   -2.5530 C   0  0  0  0  0  0  0  0  0  0  0  0
   -0.0130    4.0850   -1.4310 C   0  0  0  0  0  0  0  0  0  0  0  0
   -5.2360   -3.1930   -4.4170 C   0  0  0  0  0  0  0  0  0  0  0  0
   -2.9950   -2.0070   -1.5350 C   0  0  0  0  0  0  0  0  0  0  0  0
   -2.5180   -4.3300   -1.9790 C   0  0  0  0  0  0  0  0  0  0  0  0
   -1.0620    3.1880   -1.5970 C   0  0  0  0  0  0  0  0  0  0  0  0
    1.1250    3.6930   -0.7320 C   0  0  0  0  0  0  0  0  0  0  0  0
   -0.2160    5.3160   -1.9990 O   0  0  0  0  0  0  0  0  0  0  0  0
   -4.8700   -2.2230   -5.5440 C   0  0  0  0  0  0  0  0  0  0  0  0
   -6.6430   -2.9050   -3.8860 C   0  0  0  0  0  0  0  0  0  0  0  0
    0.8280    6.2780   -1.8590 C   0  0  0  0  0  0  0  0  0  0  0  0
    0.3880    7.5520   -2.5580 C   0  0  0  0  0  0  0  0  0  0  0  0
    1.6190   -1.4770    2.6590 H   0  0  0  0  0  0  0  0  0  0  0  0
   -1.1870   -4.1070    0.3910 H   0  0  0  0  0  0  0  0  0  0  0  0
   -1.7970    1.2120   -1.2030 H   0  0  0  0  0  0  0  0  0  0  0  0
    2.1010    2.1150    0.3450 H   0  0  0  0  0  0  0  0  0  0  0  0
   -3.6590   -5.2340   -3.5630 H   0  0  0  0  0  0  0  0  0  0  0  0
   -4.5070   -1.1110   -2.7730 H   0  0  0  0  0  0  0  0  0  0  0  0
   -5.2370   -4.2010   -4.8310 H   0  0  0  0  0  0  0  0  0  0  0  0
   -2.8010   -1.1100   -0.9650 H   0  0  0  0  0  0  0  0  0  0  0  0
   -1.9610   -5.2280   -1.7560 H   0  0  0  0  0  0  0  0  0  0  0  0
   -1.9470    3.4880   -2.1390 H   0  0  0  0  0  0  0  0  0  0  0  0
    1.9430    4.3870   -0.6030 H   0  0  0  0  0  0  0  0  0  0  0  0
   -4.8620   -1.2040   -5.1580 H   0  0  0  0  0  0  0  0  0  0  0  0
   -5.6050   -2.3020   -6.3450 H   0  0  0  0  0  0  0  0  0  0  0  0
   -3.8820   -2.4730   -5.9320 H   0  0  0  0  0  0  0  0  0  0  0  0
   -6.6730   -1.9000   -3.4640 H   0  0  0  0  0  0  0  0  0  0  0  0
   -6.8960   -3.6310   -3.1140 H   0  0  0  0  0  0  0  0  0  0  0  0
   -7.3610   -2.9780   -4.7020 H   0  0  0  0  0  0  0  0  0  0  0  0
    1.0070    6.4780   -0.8030 H   0  0  0  0  0  0  0  0  0  0  0  0
    1.7420    5.9010   -2.3180 H   0  0  0  0  0  0  0  0  0  0  0  0
   -0.5260    7.9230   -2.0950 H   0  0  0  0  0  0  0  0  0  0  0  0
    0.2030    7.3430   -3.6120 H   0  0  0  0  0  0  0  0  0  0  0  0
    1.1720    8.3040   -2.4690 H   0  0  0  0  0  0  0  0  0  0  0  0
  1  3  1  0  0  0  0
  1  4  1  0  0  0  0
  1  8  1  0  0  0  0
  2  3  1  0  0  0  0
  2  6  1  0  0  0  0
  2  7  2  0  0  0  0
  3 10  2  0  0  0  0
  4  5  1  0  0  0  0
  4  9  2  0  0  0  0
  5  6  1  0  0  0  0
  5 29  1  0  0  0  0
  6 11  2  0  0  0  0
  7 13  1  0  0  0  0
  7 30  1  0  0  0  0
  8 14  2  0  0  0  0
  8 15  1  0  0  0  0
 12 16  1  0  0  0  0
 12 17  2  0  0  0  0
 12 19  1  0  0  0  0
 13 20  2  0  0  0  0
 13 21  1  0  0  0  0
 14 22  1  0  0  0  0
 14 31  1  0  0  0  0
 15 23  2  0  0  0  0
 15 32  1  0  0  0  0
 16 21  2  0  0  0  0
 16 33  1  0  0  0  0
 17 20  1  0  0  0  0
 17 34  1  0  0  0  0
 18 22  2  0  0  0  0
 18 23  1  0  0  0  0
 18 24  1  0  0  0  0
 19 25  1  0  0  0  0
 19 26  1  0  0  0  0
 19 35  1  0  0  0  0
 20 36  1  0  0  0  0
 21 37  1  0  0  0  0
 22 38  1  0  0  0  0
 23 39  1  0  0  0  0
 24 27  1  0  0  0  0
 25 40  1  0  0  0  0
 25 41  1  0  0  0  0
 25 42  1  0  0  0  0
 26 43  1  0  0  0  0
 26 44  1  0  0  0  0
 26 45  1  0  0  0  0
 27 28  1  0  0  0  0
 27 46  1  0  0  0  0
 27 47  1  0  0  0  0
 28 48  1  0  0  0  0
 28 49  1  0  0  0  0
 28 50  1  0  0  0  0
M  END
>  <$CLUSTER>
896

>  <INDEX>
236835

$$$$
Princeton Biomolecular OSSK_459353
  MOE2020           3D

 42 44  0  0  0  0  0  0  0  0999 V2000
    0.1100   -0.8950    0.9020 C   0  0  0  0  0  0  0  0  0  0  0  0
   -1.1910   -0.7280    0.6410 C   0  0  0  0  0  0  0  0  0  0  0  0
    1.1110   -0.0930    0.1580 C   0  0  0  0  0  0  0  0  0  0  0  0
   -1.7070    0.2150   -0.3530 C   0  0  0  0  0  0  0  0  0  0  0  0
    0.6190    0.8120   -0.7960 C   0  0  0  0  0  0  0  0  0  0  0  0
   -0.7620    0.9590   -1.0420 O   0  0  0  0  0  0  0  0  0  0  0  0
    2.5150   -0.1550    0.3190 C   0  0  0  0  0  0  0  0  0  0  0  0
   -2.3460   -1.5630    1.3260 C   0  0  0  0  0  0  0  0  0  0  0  0
   -2.9310   -0.8350    2.5280 C   0  0  0  0  0  0  0  0  0  0  0  0
    3.0100   -1.0350    1.2470 O   0  0  0  0  0  0  0  0  0  0  0  0
    1.4450    1.6300   -1.5680 C   0  0  0  0  0  0  0  0  0  0  0  0
    3.3500    0.6700   -0.4600 C   0  0  0  0  0  0  0  0  0  0  0  0
   -2.9090    0.3350   -0.5600 O   0  0  0  0  0  0  0  0  0  0  0  0
    2.8170    1.5550   -1.3960 C   0  0  0  0  0  0  0  0  0  0  0  0
   -2.4810    0.2850    2.8520 O   0  0  0  0  0  0  0  0  0  0  0  0
    0.5170   -1.8950    1.9460 C   0  0  0  0  0  0  0  0  0  0  0  0
    4.4210   -1.1190    1.4320 C   0  0  0  0  0  0  0  0  0  0  0  0
    4.8610   -3.5010    2.1590 C   0  0  0  0  0  0  0  0  0  0  0  0
    5.0970   -4.4580    3.1480 C   0  0  0  0  0  0  0  0  0  0  0  0
   -3.8690   -1.5130    3.0850 O   0  5  0  0  0  0  0  0  0  0  0  0
    4.6870   -2.1580    2.5060 C   0  0  0  0  0  0  0  0  0  0  0  0
    5.2540   -5.7150    2.7320 F   0  0  0  0  0  0  0  0  0  0  0  0
    4.9790   -2.7400    4.8400 C   0  0  0  0  0  0  0  0  0  0  0  0
    3.7220    2.4200   -2.2110 C   0  0  0  0  0  0  0  0  0  0  0  0
    5.1570   -4.0770    4.4880 C   0  0  0  0  0  0  0  0  0  0  0  0
    4.7430   -1.7820    3.8520 C   0  0  0  0  0  0  0  0  0  0  0  0
   -1.9420   -2.5200    1.6550 H   0  0  0  0  0  0  0  0  0  0  0  0
   -3.1380   -1.7340    0.5970 H   0  0  0  0  0  0  0  0  0  0  0  0
    1.0200    2.3120   -2.2900 H   0  0  0  0  0  0  0  0  0  0  0  0
    4.4210    0.6160   -0.3300 H   0  0  0  0  0  0  0  0  0  0  0  0
    1.6030   -1.9070    2.0340 H   0  0  0  0  0  0  0  0  0  0  0  0
    0.1650   -2.8850    1.6570 H   0  0  0  0  0  0  0  0  0  0  0  0
    0.0780   -1.6190    2.9050 H   0  0  0  0  0  0  0  0  0  0  0  0
    4.8120   -0.1520    1.7470 H   0  0  0  0  0  0  0  0  0  0  0  0
    4.9000   -1.4180    0.5000 H   0  0  0  0  0  0  0  0  0  0  0  0
    4.8130   -3.7990    1.1220 H   0  0  0  0  0  0  0  0  0  0  0  0
    5.0240   -2.4450    5.8780 H   0  0  0  0  0  0  0  0  0  0  0  0
    3.1260    3.0390   -2.8810 H   0  0  0  0  0  0  0  0  0  0  0  0
    4.3940    1.7930   -2.7970 H   0  0  0  0  0  0  0  0  0  0  0  0
    4.3060    3.0590   -1.5490 H   0  0  0  0  0  0  0  0  0  0  0  0
    5.3410   -4.8170    5.2530 H   0  0  0  0  0  0  0  0  0  0  0  0
    4.6030   -0.7470    4.1280 H   0  0  0  0  0  0  0  0  0  0  0  0
  1  2  2  0  0  0  0
  1  3  1  0  0  0  0
  1 16  1  0  0  0  0
  2  4  1  0  0  0  0
  2  8  1  0  0  0  0
  3  5  2  0  0  0  0
  3  7  1  0  0  0  0
  4  6  1  0  0  0  0
  4 13  2  0  0  0  0
  5  6  1  0  0  0  0
  5 11  1  0  0  0  0
  7 10  1  0  0  0  0
  7 12  2  0  0  0  0
  8  9  1  0  0  0  0
  8 27  1  0  0  0  0
  8 28  1  0  0  0  0
  9 15  2  0  0  0  0
  9 20  1  0  0  0  0
 10 17  1  0  0  0  0
 11 14  2  0  0  0  0
 11 29  1  0  0  0  0
 12 14  1  0  0  0  0
 12 30  1  0  0  0  0
 14 24  1  0  0  0  0
 16 31  1  0  0  0  0
 16 32  1  0  0  0  0
 16 33  1  0  0  0  0
 17 21  1  0  0  0  0
 17 34  1  0  0  0  0
 17 35  1  0  0  0  0
 18 19  2  0  0  0  0
 18 21  1  0  0  0  0
 18 36  1  0  0  0  0
 19 22  1  0  0  0  0
 19 25  1  0  0  0  0
 21 26  2  0  0  0  0
 23 25  2  0  0  0  0
 23 26  1  0  0  0  0
 23 37  1  0  0  0  0
 24 38  1  0  0  0  0
 24 39  1  0  0  0  0
 24 40  1  0  0  0  0
 25 41  1  0  0  0  0
 26 42  1  0  0  0  0
M  CHG  1  20  -1
M  END
>  <$CLUSTER>
897

>  <INDEX>
584174

$$$$
Princeton Biomolecular OSSK_459539
  MOE2020           3D

 41 43  0  0  0  0  0  0  0  0999 V2000
    1.5580   -0.1230   -0.0140 C   0  0  0  0  0  0  0  0  0  0  0  0
    1.1120    0.9770   -0.7690 O   0  0  0  0  0  0  0  0  0  0  0  0
   -0.2400    1.2710   -0.9140 C   0  0  0  0  0  0  0  0  0  0  0  0
   -0.7890   -0.6490    0.5370 C   0  0  0  0  0  0  0  0  0  0  0  0
    0.6490   -0.9540    0.6330 C   0  0  0  0  0  0  0  0  0  0  0  0
   -1.2010    0.3860   -0.2130 C   0  0  0  0  0  0  0  0  0  0  0  0
    2.9400   -0.3450    0.0470 C   0  0  0  0  0  0  0  0  0  0  0  0
    1.1680   -2.0510    1.3330 C   0  0  0  0  0  0  0  0  0  0  0  0
    3.4480   -1.4520    0.7340 C   0  0  0  0  0  0  0  0  0  0  0  0
   -0.6060    2.2290   -1.5870 O   0  0  0  0  0  0  0  0  0  0  0  0
    2.5490   -2.3000    1.3820 C   0  0  0  0  0  0  0  0  0  0  0  0
    3.7920    0.4880   -0.6360 O   0  0  0  0  0  0  0  0  0  0  0  0
   -1.7680   -1.5210    1.2930 C   0  0  0  0  0  0  0  0  0  0  0  0
   -2.6590    0.7300   -0.4100 C   0  0  0  0  0  0  0  0  0  0  0  0
    4.8080   -1.6120    0.7040 O   0  0  0  0  0  0  0  0  0  0  0  0
    4.1970    1.5730    0.2010 C   0  0  0  0  0  0  0  0  0  0  0  0
    5.3440   -2.7300    1.4020 C   0  0  0  0  0  0  0  0  0  0  0  0
    5.1490    2.4790   -0.6090 C   0  0  0  0  0  0  0  0  0  0  0  0
   -3.1880   -0.9550    1.3650 C   0  0  0  0  0  0  0  0  0  0  0  0
   -3.6130   -0.3820    0.0230 C   0  0  0  0  0  0  0  0  0  0  0  0
    5.6370    3.6670    0.2010 C   0  0  0  0  0  0  0  0  0  0  0  0
    0.4920   -2.7190    1.8460 H   0  0  0  0  0  0  0  0  0  0  0  0
    2.9190   -3.1560    1.9270 H   0  0  0  0  0  0  0  0  0  0  0  0
   -1.3980   -1.6470    2.3110 H   0  0  0  0  0  0  0  0  0  0  0  0
   -1.8120   -2.4920    0.8000 H   0  0  0  0  0  0  0  0  0  0  0  0
   -2.8250    0.9340   -1.4680 H   0  0  0  0  0  0  0  0  0  0  0  0
   -2.8840    1.6230    0.1720 H   0  0  0  0  0  0  0  0  0  0  0  0
    4.7140    1.1880    1.0800 H   0  0  0  0  0  0  0  0  0  0  0  0
    3.3230    2.1430    0.5140 H   0  0  0  0  0  0  0  0  0  0  0  0
    6.4290   -2.7380    1.2970 H   0  0  0  0  0  0  0  0  0  0  0  0
    4.9320   -3.6500    0.9860 H   0  0  0  0  0  0  0  0  0  0  0  0
    5.0810   -2.6590    2.4580 H   0  0  0  0  0  0  0  0  0  0  0  0
    4.6200    2.8470   -1.4880 H   0  0  0  0  0  0  0  0  0  0  0  0
    6.0110    1.8910   -0.9230 H   0  0  0  0  0  0  0  0  0  0  0  0
   -3.2200   -0.1660    2.1160 H   0  0  0  0  0  0  0  0  0  0  0  0
   -3.8760   -1.7520    1.6460 H   0  0  0  0  0  0  0  0  0  0  0  0
   -3.6030   -1.1750   -0.7250 H   0  0  0  0  0  0  0  0  0  0  0  0
   -4.6210    0.0230    0.1090 H   0  0  0  0  0  0  0  0  0  0  0  0
    4.7830    4.2640    0.5210 H   0  0  0  0  0  0  0  0  0  0  0  0
    6.2980    4.2790   -0.4130 H   0  0  0  0  0  0  0  0  0  0  0  0
    6.1810    3.3110    1.0760 H   0  0  0  0  0  0  0  0  0  0  0  0
  1  2  1  0  0  0  0
  1  5  2  0  0  0  0
  1  7  1  0  0  0  0
  2  3  1  0  0  0  0
  3  6  1  0  0  0  0
  3 10  2  0  0  0  0
  4  5  1  0  0  0  0
  4  6  2  0  0  0  0
  4 13  1  0  0  0  0
  5  8  1  0  0  0  0
  6 14  1  0  0  0  0
  7  9  2  0  0  0  0
  7 12  1  0  0  0  0
  8 11  2  0  0  0  0
  8 22  1  0  0  0  0
  9 11  1  0  0  0  0
  9 15  1  0  0  0  0
 11 23  1  0  0  0  0
 12 16  1  0  0  0  0
 13 19  1  0  0  0  0
 13 24  1  0  0  0  0
 13 25  1  0  0  0  0
 14 20  1  0  0  0  0
 14 26  1  0  0  0  0
 14 27  1  0  0  0  0
 15 17  1  0  0  0  0
 16 18  1  0  0  0  0
 16 28  1  0  0  0  0
 16 29  1  0  0  0  0
 17 30  1  0  0  0  0
 17 31  1  0  0  0  0
 17 32  1  0  0  0  0
 18 21  1  0  0  0  0
 18 33  1  0  0  0  0
 18 34  1  0  0  0  0
 19 20  1  0  0  0  0
 19 35  1  0  0  0  0
 19 36  1  0  0  0  0
 20 37  1  0  0  0  0
 20 38  1  0  0  0  0
 21 39  1  0  0  0  0
 21 40  1  0  0  0  0
 21 41  1  0  0  0  0
M  END
>  <$CLUSTER>
898

>  <INDEX>
584190

$$$$
Maybridge HTS 07015
  MOE2020           3D

 45 47  0  0  0  0  0  0  0  0999 V2000
    1.5630   -0.6600   -1.8160 C   0  0  0  0  0  0  0  0  0  0  0  0
    4.0080   -0.6960   -1.8430 C   0  0  0  0  0  0  0  0  0  0  0  0
    1.5470   -1.0310   -3.1630 O   0  0  0  0  0  0  0  0  0  0  0  0
    2.7350   -1.2400   -3.8680 C   0  0  0  0  0  0  0  0  0  0  0  0
    2.7590   -0.4830   -1.1240 C   0  0  0  0  0  0  0  0  0  0  0  0
    3.9930   -1.0500   -3.1260 C   0  0  0  0  0  0  0  0  0  0  0  0
   -2.1990    0.0100    0.4520 C   0  0  0  0  0  0  0  0  0  0  0  0
    0.3360   -0.4680   -1.1720 C   0  0  0  0  0  0  0  0  0  0  0  0
   -0.8920    0.1200    0.9090 N   0  0  0  0  0  0  0  0  0  0  0  0
   -4.6420    0.2230    1.1150 C   0  0  0  0  0  0  0  0  0  0  0  0
    2.7310   -0.1130    0.2180 C   0  0  0  0  0  0  0  0  0  0  0  0
   -6.4390   -1.4940    0.2370 C   0  0  0  0  0  0  0  0  0  0  0  0
    0.2980   -0.0960    0.1750 C   0  0  0  0  0  0  0  0  0  0  0  0
    2.7370   -1.5660   -5.0490 O   0  0  0  0  0  0  0  0  0  0  0  0
   -3.1880    0.3230    1.5480 C   0  0  0  0  0  0  0  0  0  0  0  0
   -2.5830   -0.2950   -0.6720 O   0  0  0  0  0  0  0  0  0  0  0  0
   -5.0350   -1.1960    0.6620 C   0  0  0  0  0  0  0  0  0  0  0  0
   -7.2020   -1.8970    1.1590 O   0  0  0  0  0  0  0  0  0  0  0  0
    1.5080    0.0790    0.8630 C   0  0  0  0  0  0  0  0  0  0  0  0
   -6.6830   -1.3060   -0.9880 O   0  5  0  0  0  0  0  0  0  0  0  0
    5.2830   -0.5010   -1.0810 C   0  0  0  0  0  0  0  0  0  0  0  0
   -5.0040    1.2230    0.0000 C   0  0  0  0  0  0  0  0  0  0  0  0
   -5.5420    0.5740    2.3520 C   0  0  0  0  0  0  0  0  0  0  0  0
   -6.8740    1.0600    1.6460 C   0  0  0  0  0  0  0  0  0  0  0  0
   -6.5260    1.4540    0.2140 C   0  0  0  0  0  0  0  0  0  0  0  0
    4.9310   -1.2020   -3.6380 H   0  0  0  0  0  0  0  0  0  0  0  0
   -0.5860   -0.6080   -1.7180 H   0  0  0  0  0  0  0  0  0  0  0  0
   -0.7780    0.3850    1.8770 H   0  0  0  0  0  0  0  0  0  0  0  0
    3.6550    0.0250    0.7600 H   0  0  0  0  0  0  0  0  0  0  0  0
   -3.0030    1.3390    1.8970 H   0  0  0  0  0  0  0  0  0  0  0  0
   -3.0250   -0.3780    2.3670 H   0  0  0  0  0  0  0  0  0  0  0  0
   -4.8120   -1.8630    1.4950 H   0  0  0  0  0  0  0  0  0  0  0  0
   -4.3930   -1.4430   -0.1840 H   0  0  0  0  0  0  0  0  0  0  0  0
    1.4930    0.3660    1.9040 H   0  0  0  0  0  0  0  0  0  0  0  0
    5.0530   -0.2150   -0.0550 H   0  0  0  0  0  0  0  0  0  0  0  0
    5.8720    0.2850   -1.5540 H   0  0  0  0  0  0  0  0  0  0  0  0
    5.8520   -1.4310   -1.0800 H   0  0  0  0  0  0  0  0  0  0  0  0
   -4.8070    0.7990   -0.9850 H   0  0  0  0  0  0  0  0  0  0  0  0
   -4.4470    2.1530    0.1130 H   0  0  0  0  0  0  0  0  0  0  0  0
   -5.0990    1.3670    2.9550 H   0  0  0  0  0  0  0  0  0  0  0  0
   -5.7190   -0.3010    2.9770 H   0  0  0  0  0  0  0  0  0  0  0  0
   -7.2830    1.9190    2.1780 H   0  0  0  0  0  0  0  0  0  0  0  0
   -7.6070    0.2530    1.6410 H   0  0  0  0  0  0  0  0  0  0  0  0
   -7.0940    0.8400   -0.4850 H   0  0  0  0  0  0  0  0  0  0  0  0
   -6.7660    2.5050    0.0520 H   0  0  0  0  0  0  0  0  0  0  0  0
  1  3  1  0  0  0  0
  1  5  2  0  0  0  0
  1  8  1  0  0  0  0
  2  5  1  0  0  0  0
  2  6  2  0  0  0  0
  2 21  1  0  0  0  0
  3  4  1  0  0  0  0
  4  6  1  0  0  0  0
  4 14  2  0  0  0  0
  5 11  1  0  0  0  0
  6 26  1  0  0  0  0
  7  9  1  0  0  0  0
  7 15  1  0  0  0  0
  7 16  2  0  0  0  0
  8 13  2  0  0  0  0
  8 27  1  0  0  0  0
  9 13  1  0  0  0  0
  9 28  1  0  0  0  0
 10 15  1  0  0  0  0
 10 17  1  0  0  0  0
 10 22  1  0  0  0  0
 10 23  1  0  0  0  0
 11 19  2  0  0  0  0
 11 29  1  0  0  0  0
 12 17  1  0  0  0  0
 12 18  2  0  0  0  0
 12 20  1  0  0  0  0
 13 19  1  0  0  0  0
 15 30  1  0  0  0  0
 15 31  1  0  0  0  0
 17 32  1  0  0  0  0
 17 33  1  0  0  0  0
 19 34  1  0  0  0  0
 21 35  1  0  0  0  0
 21 36  1  0  0  0  0
 21 37  1  0  0  0  0
 22 25  1  0  0  0  0
 22 38  1  0  0  0  0
 22 39  1  0  0  0  0
 23 24  1  0  0  0  0
 23 40  1  0  0  0  0
 23 41  1  0  0  0  0
 24 25  1  0  0  0  0
 24 42  1  0  0  0  0
 24 43  1  0  0  0  0
 25 44  1  0  0  0  0
 25 45  1  0  0  0  0
M  CHG  1  20  -1
M  END
>  <$CLUSTER>
899

>  <INDEX>
551863

$$$$
Comgenex CGX-3302684
  MOE2020           3D

 48 51  0  0  1  0  0  0  0  0999 V2000
    0.0900    1.1940   -0.3990 C   0  0  0  0  0  0  0  0  0  0  0  0
    0.0790    0.6570    0.8240 C   0  0  0  0  0  0  0  0  0  0  0  0
    0.1580   -1.5930   -0.0810 C   0  0  0  0  0  0  0  0  0  0  0  0
    0.1230    2.6580   -0.2260 C   0  0  0  0  0  0  0  0  0  0  0  0
    0.0820    0.4240   -1.6560 C   0  0  3  0  0  0  0  0  0  0  0  0
    0.1120    2.8920    1.1380 N   0  0  0  0  0  0  0  0  0  0  0  0
    0.0830   -0.7080    1.0120 N   0  0  0  0  0  0  0  0  0  0  0  0
    0.2020   -1.0040   -1.3420 N   0  0  0  0  0  0  0  0  0  0  0  0
    0.0730    1.6700    1.9140 C   0  0  0  0  0  0  0  0  0  0  0  0
   -1.1890    0.6640   -2.4660 C   0  0  0  0  0  0  0  0  0  0  0  0
    0.1250    4.2050    1.7650 C   0  0  0  0  0  0  0  0  0  0  0  0
    0.2020   -2.8210    0.0310 O   0  0  0  0  0  0  0  0  0  0  0  0
    0.1530    3.4610   -1.1450 O   0  0  0  0  0  0  0  0  0  0  0  0
   -2.4440    0.1830   -2.0620 C   0  0  0  0  0  0  0  0  0  0  0  0
   -1.2600    4.6250    2.2250 C   0  0  0  0  0  0  0  0  0  0  0  0
    0.0270   -1.2390    2.3700 C   0  0  0  0  0  0  0  0  0  0  0  0
   -3.5990    0.4660   -2.7950 C   0  0  0  0  0  0  0  0  0  0  0  0
   -3.8220    5.4030    3.0690 C   0  0  0  0  0  0  0  0  0  0  0  0
   -5.0520    5.8040    3.3890 F   0  0  0  0  0  0  0  0  0  0  0  0
   -1.6420    4.4760    3.5660 C   0  0  0  0  0  0  0  0  0  0  0  0
   -2.1830    5.1520    1.3080 C   0  0  0  0  0  0  0  0  0  0  0  0
   -2.9170    4.8670    3.9860 C   0  0  0  0  0  0  0  0  0  0  0  0
   -3.4560    5.5430    1.7300 C   0  0  0  0  0  0  0  0  0  0  0  0
   -1.1300    1.4610   -3.6340 C   0  0  0  0  0  0  0  0  0  0  0  0
   -4.7520   -0.0800   -2.2760 O   0  0  0  0  0  0  0  0  0  0  0  0
   -2.2860    1.7440   -4.3670 C   0  0  0  0  0  0  0  0  0  0  0  0
   -3.5190    1.2470   -3.9480 C   0  0  0  0  0  0  0  0  0  0  0  0
   -5.9590    0.1810   -2.9840 C   0  0  0  0  0  0  0  0  0  0  0  0
    0.9250    0.7560   -2.2620 H   0  0  0  0  0  0  0  0  0  0  0  0
    0.3310   -1.6280   -2.1260 H   0  0  0  0  0  0  0  0  0  0  0  0
    0.9470    1.5740    2.5580 H   0  0  0  0  0  0  0  0  0  0  0  0
   -0.8320    1.6060    2.5180 H   0  0  0  0  0  0  0  0  0  0  0  0
    0.4940    4.9360    1.0450 H   0  0  0  0  0  0  0  0  0  0  0  0
    0.7900    4.1770    2.6280 H   0  0  0  0  0  0  0  0  0  0  0  0
   -2.5180   -0.4170   -1.1670 H   0  0  0  0  0  0  0  0  0  0  0  0
   -0.0270   -0.4140    3.0810 H   0  0  0  0  0  0  0  0  0  0  0  0
    0.9220   -1.8290    2.5660 H   0  0  0  0  0  0  0  0  0  0  0  0
   -0.8550   -1.8700    2.4770 H   0  0  0  0  0  0  0  0  0  0  0  0
   -0.9470    4.0570    4.2790 H   0  0  0  0  0  0  0  0  0  0  0  0
   -1.9070    5.2560    0.2690 H   0  0  0  0  0  0  0  0  0  0  0  0
   -3.2020    4.7540    5.0220 H   0  0  0  0  0  0  0  0  0  0  0  0
   -4.1570    5.9540    1.0190 H   0  0  0  0  0  0  0  0  0  0  0  0
   -0.1800    1.8550   -3.9630 H   0  0  0  0  0  0  0  0  0  0  0  0
   -2.2240    2.3490   -5.2600 H   0  0  0  0  0  0  0  0  0  0  0  0
   -4.4110    1.4660   -4.5150 H   0  0  0  0  0  0  0  0  0  0  0  0
   -6.7920   -0.3030   -2.4740 H   0  0  0  0  0  0  0  0  0  0  0  0
   -5.8770   -0.2100   -3.9980 H   0  0  0  0  0  0  0  0  0  0  0  0
   -6.1320    1.2560   -3.0220 H   0  0  0  0  0  0  0  0  0  0  0  0
  1  2  2  0  0  0  0
  1  4  1  0  0  0  0
  1  5  1  0  0  0  0
  2  7  1  0  0  0  0
  2  9  1  0  0  0  0
  3  7  1  0  0  0  0
  3  8  1  0  0  0  0
  3 12  2  0  0  0  0
  4  6  1  0  0  0  0
  4 13  2  0  0  0  0
  5  8  1  0  0  0  0
  5 10  1  0  0  0  0
  5 29  1  0  0  0  0
  6  9  1  0  0  0  0
  6 11  1  0  0  0  0
  7 16  1  0  0  0  0
  8 30  1  0  0  0  0
  9 31  1  0  0  0  0
  9 32  1  0  0  0  0
 10 14  2  0  0  0  0
 10 24  1  0  0  0  0
 11 15  1  0  0  0  0
 11 33  1  0  0  0  0
 11 34  1  0  0  0  0
 14 17  1  0  0  0  0
 14 35  1  0  0  0  0
 15 20  2  0  0  0  0
 15 21  1  0  0  0  0
 16 36  1  0  0  0  0
 16 37  1  0  0  0  0
 16 38  1  0  0  0  0
 17 25  1  0  0  0  0
 17 27  2  0  0  0  0
 18 19  1  0  0  0  0
 18 22  2  0  0  0  0
 18 23  1  0  0  0  0
 20 22  1  0  0  0  0
 20 39  1  0  0  0  0
 21 23  2  0  0  0  0
 21 40  1  0  0  0  0
 22 41  1  0  0  0  0
 23 42  1  0  0  0  0
 24 26  2  0  0  0  0
 24 43  1  0  0  0  0
 25 28  1  0  0  0  0
 26 27  1  0  0  0  0
 26 44  1  0  0  0  0
 27 45  1  0  0  0  0
 28 46  1  0  0  0  0
 28 47  1  0  0  0  0
 28 48  1  0  0  0  0
M  END
>  <$CLUSTER>
900

>  <INDEX>
267116

$$$$
Princeton Biomolecular OSSK_465841
  MOE2020           3D

 45 48  0  0  0  0  0  0  0  0999 V2000
   -0.4280   -0.1300   -0.4320 N   0  0  0  0  0  0  0  0  0  0  0  0
   -1.6560    0.1500    0.1600 C   0  0  0  0  0  0  0  0  0  0  0  0
   -0.6010   -0.6370   -1.6860 N   0  0  0  0  0  0  0  0  0  0  0  0
   -2.6360   -0.1960   -0.7600 C   0  0  0  0  0  0  0  0  0  0  0  0
   -1.9190   -0.6710   -1.8680 C   0  0  0  0  0  0  0  0  0  0  0  0
    0.8940    0.0390    0.0790 C   0  0  0  0  0  0  0  0  0  0  0  0
   -3.9880   -0.0120   -0.4130 C   0  0  0  0  0  0  0  0  0  0  0  0
   -1.8860    0.6560    1.3840 N   0  0  0  0  0  0  0  0  0  0  0  0
   -7.1580   -1.2250   -0.9080 C   0  0  0  0  0  0  0  0  0  0  0  0
    1.9910   -0.3230   -0.7230 C   0  0  0  0  0  0  0  0  0  0  0  0
   -4.2400    0.5030    0.8270 N   0  0  0  0  0  0  0  0  0  0  0  0
   -6.2970   -0.1470   -0.8900 N   0  0  0  0  0  0  0  0  0  0  0  0
   -5.0100   -0.3410   -1.3010 N   0  0  0  0  0  0  0  0  0  0  0  0
    3.2980   -0.1700   -0.2530 C   0  0  0  0  0  0  0  0  0  0  0  0
   -8.5410   -0.8640   -0.4350 C   0  0  0  0  0  0  0  0  0  0  0  0
   -3.1980    0.7980    1.6310 C   0  0  0  0  0  0  0  0  0  0  0  0
    1.1370    0.5540    1.3580 C   0  0  0  0  0  0  0  0  0  0  0  0
    3.5280    0.3440    1.0190 C   0  0  0  0  0  0  0  0  0  0  0  0
   -6.8810   -2.3600   -1.2870 O   0  0  0  0  0  0  0  0  0  0  0  0
   -9.0870    0.3900   -0.5150 C   0  0  0  0  0  0  0  0  0  0  0  0
    2.4490    0.7050    1.8220 C   0  0  0  0  0  0  0  0  0  0  0  0
    4.6180   -0.6120   -1.2370 Cl  0  0  0  0  0  0  0  0  0  0  0  0
  -10.3890    0.6260   -0.0660 C   0  0  0  0  0  0  0  0  0  0  0  0
   -9.3180   -1.9440    0.0750 C   0  0  0  0  0  0  0  0  0  0  0  0
  -10.6180   -1.7020    0.5230 C   0  0  0  0  0  0  0  0  0  0  0  0
    4.9250    0.5050    1.5170 C   0  0  0  0  0  0  0  0  0  0  0  0
  -11.1520   -0.4170    0.4550 C   0  0  0  0  0  0  0  0  0  0  0  0
  -10.9690    2.0020   -0.1420 C   0  0  0  0  0  0  0  0  0  0  0  0
   -2.3870   -1.0270   -2.7740 H   0  0  0  0  0  0  0  0  0  0  0  0
    1.8220   -0.7230   -1.7120 H   0  0  0  0  0  0  0  0  0  0  0  0
   -6.6110    0.7620   -0.5810 H   0  0  0  0  0  0  0  0  0  0  0  0
   -4.8050   -0.7110   -2.2180 H   0  0  0  0  0  0  0  0  0  0  0  0
   -3.4520    1.2010    2.6000 H   0  0  0  0  0  0  0  0  0  0  0  0
    0.3080    0.8360    1.9900 H   0  0  0  0  0  0  0  0  0  0  0  0
   -8.5070    1.2020   -0.9280 H   0  0  0  0  0  0  0  0  0  0  0  0
    2.6260    1.1040    2.8100 H   0  0  0  0  0  0  0  0  0  0  0  0
   -8.9050   -2.9410    0.1150 H   0  0  0  0  0  0  0  0  0  0  0  0
  -11.2100   -2.5120    0.9230 H   0  0  0  0  0  0  0  0  0  0  0  0
    5.6250    0.1710    0.7510 H   0  0  0  0  0  0  0  0  0  0  0  0
    5.0600   -0.0930    2.4190 H   0  0  0  0  0  0  0  0  0  0  0  0
    5.1110    1.5550    1.7450 H   0  0  0  0  0  0  0  0  0  0  0  0
  -12.1560   -0.2300    0.8060 H   0  0  0  0  0  0  0  0  0  0  0  0
  -10.2350    2.6820   -0.5730 H   0  0  0  0  0  0  0  0  0  0  0  0
  -11.2340    2.3400    0.8600 H   0  0  0  0  0  0  0  0  0  0  0  0
  -11.8610    1.9860   -0.7680 H   0  0  0  0  0  0  0  0  0  0  0  0
  1  2  1  0  0  0  0
  1  3  1  0  0  0  0
  1  6  1  0  0  0  0
  2  4  2  0  0  0  0
  2  8  1  0  0  0  0
  3  5  2  0  0  0  0
  4  5  1  0  0  0  0
  4  7  1  0  0  0  0
  5 29  1  0  0  0  0
  6 10  2  0  0  0  0
  6 17  1  0  0  0  0
  7 11  2  0  0  0  0
  7 13  1  0  0  0  0
  8 16  2  0  0  0  0
  9 12  1  0  0  0  0
  9 15  1  0  0  0  0
  9 19  2  0  0  0  0
 10 14  1  0  0  0  0
 10 30  1  0  0  0  0
 11 16  1  0  0  0  0
 12 13  1  0  0  0  0
 12 31  1  0  0  0  0
 13 32  1  0  0  0  0
 14 18  2  0  0  0  0
 14 22  1  0  0  0  0
 15 20  2  0  0  0  0
 15 24  1  0  0  0  0
 16 33  1  0  0  0  0
 17 21  2  0  0  0  0
 17 34  1  0  0  0  0
 18 21  1  0  0  0  0
 18 26  1  0  0  0  0
 20 23  1  0  0  0  0
 20 35  1  0  0  0  0
 21 36  1  0  0  0  0
 23 27  2  0  0  0  0
 23 28  1  0  0  0  0
 24 25  2  0  0  0  0
 24 37  1  0  0  0  0
 25 27  1  0  0  0  0
 25 38  1  0  0  0  0
 26 39  1  0  0  0  0
 26 40  1  0  0  0  0
 26 41  1  0  0  0  0
 27 42  1  0  0  0  0
 28 43  1  0  0  0  0
 28 44  1  0  0  0  0
 28 45  1  0  0  0  0
M  END
>  <$CLUSTER>
901

>  <INDEX>
585057

$$$$
Princeton Biomolecular OSSK_481719
  MOE2020           3D

 50 51  0  0  0  0  0  0  0  0999 V2000
    0.9140    3.4850   -6.5510 N   0  0  0  0  0  0  0  0  0  0  0  0
   -1.0950    2.2480   -6.4100 N   0  0  0  0  0  0  0  0  0  0  0  0
   -0.3140    3.2640   -6.8820 C   0  0  0  0  0  0  0  0  0  0  0  0
    1.5250    2.6430   -5.6500 C   0  0  0  0  0  0  0  0  0  0  0  0
    0.7670    1.5630   -5.1520 N   0  0  0  0  0  0  0  0  0  0  0  0
   -0.5640    1.4100   -5.5640 C   0  0  0  0  0  0  0  0  0  0  0  0
    1.7370    0.2810   -0.2210 S   0  0  0  0  0  0  0  0  0  0  0  0
    0.0100    0.0060    0.0340 C   0  0  0  0  0  0  0  0  0  0  0  0
   -0.9580    4.1540   -7.8260 N   0  0  0  0  0  0  0  0  0  0  0  0
    2.0170    1.6660    0.1030 O   0  0  0  0  0  0  0  0  0  0  0  0
    2.4570   -0.7940    0.4330 O   0  0  0  0  0  0  0  0  0  0  0  0
    1.8360    0.0720   -1.9080 N   0  0  0  0  0  0  0  0  0  0  0  0
    2.6850    2.8480   -5.2890 O   0  0  0  0  0  0  0  0  0  0  0  0
   -1.3280    0.3850   -5.0640 N   0  0  0  0  0  0  0  0  0  0  0  0
    1.4220    0.6140   -4.2380 C   0  0  0  0  0  0  0  0  0  0  0  0
    1.1670    1.0200   -2.8050 C   0  0  0  0  0  0  0  0  0  0  0  0
   -0.4480   -1.2820    0.3120 C   0  0  0  0  0  0  0  0  0  0  0  0
   -0.8720    1.0870   -0.0070 C   0  0  0  0  0  0  0  0  0  0  0  0
   -1.8080   -1.4900    0.5390 C   0  0  0  0  0  0  0  0  0  0  0  0
   -2.2300    0.8700    0.2220 C   0  0  0  0  0  0  0  0  0  0  0  0
   -2.6990   -0.4160    0.4940 C   0  0  0  0  0  0  0  0  0  0  0  0
   -2.3500    3.9790   -8.2570 C   0  0  0  0  0  0  0  0  0  0  0  0
   -0.2420    5.2920   -8.4110 C   0  0  0  0  0  0  0  0  0  0  0  0
   -4.1540   -0.6500    0.7380 C   0  0  0  0  0  0  0  0  0  0  0  0
   -2.4270    3.0040   -9.4210 C   0  0  0  0  0  0  0  0  0  0  0  0
   -0.3300    6.5040   -7.4970 C   0  0  0  0  0  0  0  0  0  0  0  0
    1.4550   -0.8410   -2.1120 H   0  0  0  0  0  0  0  0  0  0  0  0
   -2.2910    0.2860   -5.3520 H   0  0  0  0  0  0  0  0  0  0  0  0
   -0.9270   -0.2700   -4.4080 H   0  0  0  0  0  0  0  0  0  0  0  0
    2.4950    0.6120   -4.4270 H   0  0  0  0  0  0  0  0  0  0  0  0
    1.0210   -0.3860   -4.4070 H   0  0  0  0  0  0  0  0  0  0  0  0
    1.5600    2.0220   -2.6350 H   0  0  0  0  0  0  0  0  0  0  0  0
    0.0950    1.0120   -2.6090 H   0  0  0  0  0  0  0  0  0  0  0  0
    0.2440   -2.1100    0.3510 H   0  0  0  0  0  0  0  0  0  0  0  0
   -0.5060    2.0820   -0.2140 H   0  0  0  0  0  0  0  0  0  0  0  0
   -2.1730   -2.4840    0.7500 H   0  0  0  0  0  0  0  0  0  0  0  0
   -2.9210    1.6990    0.1890 H   0  0  0  0  0  0  0  0  0  0  0  0
   -2.7530    4.9430   -8.5690 H   0  0  0  0  0  0  0  0  0  0  0  0
   -2.9370    3.5910   -7.4250 H   0  0  0  0  0  0  0  0  0  0  0  0
   -0.6860    5.5370   -9.3760 H   0  0  0  0  0  0  0  0  0  0  0  0
    0.8050    5.0230   -8.5510 H   0  0  0  0  0  0  0  0  0  0  0  0
   -4.3240   -1.7090    0.9310 H   0  0  0  0  0  0  0  0  0  0  0  0
   -4.7230   -0.3450   -0.1400 H   0  0  0  0  0  0  0  0  0  0  0  0
   -4.4760   -0.0670    1.6010 H   0  0  0  0  0  0  0  0  0  0  0  0
   -1.8410    3.3880  -10.2560 H   0  0  0  0  0  0  0  0  0  0  0  0
   -3.4660    2.8880   -9.7300 H   0  0  0  0  0  0  0  0  0  0  0  0
   -2.0300    2.0370   -9.1120 H   0  0  0  0  0  0  0  0  0  0  0  0
   -1.3760    6.7760   -7.3540 H   0  0  0  0  0  0  0  0  0  0  0  0
    0.2050    7.3390   -7.9490 H   0  0  0  0  0  0  0  0  0  0  0  0
    0.1180    6.2650   -6.5320 H   0  0  0  0  0  0  0  0  0  0  0  0
  1  3  2  0  0  0  0
  1  4  1  0  0  0  0
  2  3  1  0  0  0  0
  2  6  2  0  0  0  0
  3  9  1  0  0  0  0
  4  5  1  0  0  0  0
  4 13  2  0  0  0  0
  5  6  1  0  0  0  0
  5 15  1  0  0  0  0
  6 14  1  0  0  0  0
  7  8  1  0  0  0  0
  7 10  2  0  0  0  0
  7 11  2  0  0  0  0
  7 12  1  0  0  0  0
  8 17  2  0  0  0  0
  8 18  1  0  0  0  0
  9 22  1  0  0  0  0
  9 23  1  0  0  0  0
 12 16  1  0  0  0  0
 12 27  1  0  0  0  0
 14 28  1  0  0  0  0
 14 29  1  0  0  0  0
 15 16  1  0  0  0  0
 15 30  1  0  0  0  0
 15 31  1  0  0  0  0
 16 32  1  0  0  0  0
 16 33  1  0  0  0  0
 17 19  1  0  0  0  0
 17 34  1  0  0  0  0
 18 20  2  0  0  0  0
 18 35  1  0  0  0  0
 19 21  2  0  0  0  0
 19 36  1  0  0  0  0
 20 21  1  0  0  0  0
 20 37  1  0  0  0  0
 21 24  1  0  0  0  0
 22 25  1  0  0  0  0
 22 38  1  0  0  0  0
 22 39  1  0  0  0  0
 23 26  1  0  0  0  0
 23 40  1  0  0  0  0
 23 41  1  0  0  0  0
 24 42  1  0  0  0  0
 24 43  1  0  0  0  0
 24 44  1  0  0  0  0
 25 45  1  0  0  0  0
 25 46  1  0  0  0  0
 25 47  1  0  0  0  0
 26 48  1  0  0  0  0
 26 49  1  0  0  0  0
 26 50  1  0  0  0  0
M  END
>  <$CLUSTER>
902

>  <INDEX>
585871

$$$$
Maybridge RJF 00894
  MOE2020           3D

 36 36  0  0  0  0  0  0  0  0999 V2000
    0.6120   -0.4310    1.5590 N   0  0  0  0  0  0  0  0  0  0  0  0
    0.1020   -0.1060    0.3510 C   0  0  0  0  0  0  0  0  0  0  0  0
    1.9260   -0.1790    1.7540 C   0  0  0  0  0  0  0  0  0  0  0  0
    2.7440    0.3810    0.7980 C   0  0  0  0  0  0  0  0  0  0  0  0
    0.8200    0.4450   -0.6470 N   0  0  0  0  0  0  0  0  0  0  0  0
   -1.2470   -0.3830    0.1970 N   0  0  0  0  0  0  0  0  0  0  0  0
    2.1300    0.6770   -0.3990 C   0  0  0  0  0  0  0  0  0  0  0  0
   -2.0070   -0.1550   -0.9150 C   0  0  0  0  0  0  0  0  0  0  0  0
    4.2090    0.6490    1.0960 C   0  0  0  0  0  0  0  0  0  0  0  0
   -1.6390    0.3350   -1.9810 O   0  0  0  0  0  0  0  0  0  0  0  0
    2.3840   -0.5100    2.9800 O   0  0  0  0  0  0  0  0  0  0  0  0
    4.4150    2.0020    1.7640 C   0  0  0  0  0  0  0  0  0  0  0  0
    2.8930    1.3080   -1.5630 C   0  0  0  0  0  0  0  0  0  0  0  0
   -3.4410   -0.5840   -0.7170 C   0  0  0  0  0  0  0  0  0  0  0  0
    5.8960    2.3740    1.9750 C   0  0  0  0  0  0  0  0  0  0  0  0
    6.0050    3.8030    2.5110 C   0  0  0  0  0  0  0  0  0  0  0  0
    6.6120    1.4110    2.9230 C   0  0  0  0  0  0  0  0  0  0  0  0
   -1.7170   -0.7970    0.9890 H   0  0  0  0  0  0  0  0  0  0  0  0
    4.7680    0.6290    0.1610 H   0  0  0  0  0  0  0  0  0  0  0  0
    4.5820   -0.1320    1.7590 H   0  0  0  0  0  0  0  0  0  0  0  0
    3.3140   -0.3260    3.1290 H   0  0  0  0  0  0  0  0  0  0  0  0
    3.9240    1.9830    2.7370 H   0  0  0  0  0  0  0  0  0  0  0  0
    3.9540    2.7670    1.1390 H   0  0  0  0  0  0  0  0  0  0  0  0
    3.9340    1.4580   -1.2760 H   0  0  0  0  0  0  0  0  0  0  0  0
    2.4430    2.2680   -1.8140 H   0  0  0  0  0  0  0  0  0  0  0  0
    2.8460    0.6470   -2.4290 H   0  0  0  0  0  0  0  0  0  0  0  0
   -3.5630   -0.9900    0.2870 H   0  0  0  0  0  0  0  0  0  0  0  0
   -3.6960   -1.3480   -1.4510 H   0  0  0  0  0  0  0  0  0  0  0  0
   -4.0980    0.2760   -0.8440 H   0  0  0  0  0  0  0  0  0  0  0  0
    6.3870    2.3010    1.0040 H   0  0  0  0  0  0  0  0  0  0  0  0
    5.5120    3.8660    3.4810 H   0  0  0  0  0  0  0  0  0  0  0  0
    5.5250    4.4900    1.8140 H   0  0  0  0  0  0  0  0  0  0  0  0
    7.0560    4.0710    2.6200 H   0  0  0  0  0  0  0  0  0  0  0  0
    6.1470    1.4570    3.9080 H   0  0  0  0  0  0  0  0  0  0  0  0
    7.6620    1.6940    3.0040 H   0  0  0  0  0  0  0  0  0  0  0  0
    6.5380    0.3960    2.5340 H   0  0  0  0  0  0  0  0  0  0  0  0
  1  2  1  0  0  0  0
  1  3  2  0  0  0  0
  2  5  2  0  0  0  0
  2  6  1  0  0  0  0
  3  4  1  0  0  0  0
  3 11  1  0  0  0  0
  4  7  2  0  0  0  0
  4  9  1  0  0  0  0
  5  7  1  0  0  0  0
  6  8  1  0  0  0  0
  6 18  1  0  0  0  0
  7 13  1  0  0  0  0
  8 10  2  0  0  0  0
  8 14  1  0  0  0  0
  9 12  1  0  0  0  0
  9 19  1  0  0  0  0
  9 20  1  0  0  0  0
 11 21  1  0  0  0  0
 12 15  1  0  0  0  0
 12 22  1  0  0  0  0
 12 23  1  0  0  0  0
 13 24  1  0  0  0  0
 13 25  1  0  0  0  0
 13 26  1  0  0  0  0
 14 27  1  0  0  0  0
 14 28  1  0  0  0  0
 14 29  1  0  0  0  0
 15 16  1  0  0  0  0
 15 17  1  0  0  0  0
 15 30  1  0  0  0  0
 16 31  1  0  0  0  0
 16 32  1  0  0  0  0
 16 33  1  0  0  0  0
 17 34  1  0  0  0  0
 17 35  1  0  0  0  0
 17 36  1  0  0  0  0
M  END
>  <$CLUSTER>
903

>  <INDEX>
619784

$$$$
Chem T&I AMCLME-06811
  MOE2020           3D

 48 49  0  0  1  0  0  0  0  0999 V2000
    3.7970   -2.8990   -1.5420 N   0  3  0  0  0  0  0  0  0  0  0  0
    1.7330   -1.6830   -0.8700 C   0  0  0  0  0  0  0  0  0  0  0  0
    1.2410   -0.5140   -0.3030 N   0  0  0  0  0  0  0  0  0  0  0  0
   -0.1120   -0.1600   -0.0680 C   0  0  0  0  0  0  0  0  0  0  0  0
    3.2390   -1.6610   -0.9400 C   0  0  0  0  0  0  0  0  0  0  0  0
    3.6390   -4.1250   -0.6710 C   0  0  0  0  0  0  0  0  0  0  0  0
    5.2350   -2.7330   -1.9640 C   0  0  0  0  0  0  0  0  0  0  0  0
    1.0990   -2.6480   -1.2820 O   0  0  0  0  0  0  0  0  0  0  0  0
   -0.3620    1.0970    0.5270 C   0  0  0  0  0  0  0  0  0  0  0  0
    5.7640   -3.9590   -2.7060 C   0  0  3  0  0  0  0  0  0  0  0  0
    4.0930   -5.3760   -1.3890 C   0  0  3  0  0  0  0  0  0  0  0  0
    5.5440   -5.2260   -1.8680 C   0  0  0  0  0  0  0  0  0  0  0  0
    0.7480    1.8540    0.8190 O   0  0  0  0  0  0  0  0  0  0  0  0
   -1.1920   -0.9880   -0.3950 C   0  0  0  0  0  0  0  0  0  0  0  0
   -1.6800    1.4960    0.7810 C   0  0  0  0  0  0  0  0  0  0  0  0
    3.9530   -6.5970   -0.4800 C   0  0  0  0  0  0  0  0  0  0  0  0
    5.1610   -4.0920   -4.1080 C   0  0  0  0  0  0  0  0  0  0  0  0
    0.5330    3.1250    1.4190 C   0  0  0  0  0  0  0  0  0  0  0  0
    1.8130    3.8310    1.6790 C   0  0  0  0  0  0  0  0  0  0  0  0
   -2.5010   -0.5780   -0.1370 C   0  0  0  0  0  0  0  0  0  0  0  0
   -2.7450    0.6590    0.4490 C   0  0  0  0  0  0  0  0  0  0  0  0
    3.2390   -3.0560   -2.3690 H   0  0  0  0  0  0  0  0  0  0  0  0
    1.9320    0.1680   -0.0240 H   0  0  0  0  0  0  0  0  0  0  0  0
    3.5490   -0.8080   -1.5440 H   0  0  0  0  0  0  0  0  0  0  0  0
    3.6350   -1.5540    0.0700 H   0  0  0  0  0  0  0  0  0  0  0  0
    2.5890   -4.2340   -0.3990 H   0  0  0  0  0  0  0  0  0  0  0  0
    4.2370   -3.9980    0.2320 H   0  0  0  0  0  0  0  0  0  0  0  0
    5.8450   -2.5700   -1.0750 H   0  0  0  0  0  0  0  0  0  0  0  0
    5.3100   -1.8660   -2.6200 H   0  0  0  0  0  0  0  0  0  0  0  0
    6.8370   -3.8260   -2.8480 H   0  0  0  0  0  0  0  0  0  0  0  0
    3.4560   -5.5210   -2.2610 H   0  0  0  0  0  0  0  0  0  0  0  0
    6.1960   -5.1850   -0.9960 H   0  0  0  0  0  0  0  0  0  0  0  0
    5.8020   -6.0940   -2.4740 H   0  0  0  0  0  0  0  0  0  0  0  0
   -1.0110   -1.9510   -0.8500 H   0  0  0  0  0  0  0  0  0  0  0  0
   -1.8730    2.4560    1.2360 H   0  0  0  0  0  0  0  0  0  0  0  0
    4.5840   -6.4690    0.3990 H   0  0  0  0  0  0  0  0  0  0  0  0
    4.2620   -7.4910   -1.0220 H   0  0  0  0  0  0  0  0  0  0  0  0
    2.9130   -6.7010   -0.1690 H   0  0  0  0  0  0  0  0  0  0  0  0
    4.0830   -4.2280   -4.0280 H   0  0  0  0  0  0  0  0  0  0  0  0
    5.6000   -4.9530   -4.6120 H   0  0  0  0  0  0  0  0  0  0  0  0
    5.3720   -3.1890   -4.6810 H   0  0  0  0  0  0  0  0  0  0  0  0
    0.0080    2.9860    2.3640 H   0  0  0  0  0  0  0  0  0  0  0  0
   -0.0770    3.7330    0.7510 H   0  0  0  0  0  0  0  0  0  0  0  0
    2.4300    3.2300    2.3470 H   0  0  0  0  0  0  0  0  0  0  0  0
    1.6080    4.7960    2.1430 H   0  0  0  0  0  0  0  0  0  0  0  0
    2.3410    3.9850    0.7380 H   0  0  0  0  0  0  0  0  0  0  0  0
   -3.3280   -1.2240   -0.3940 H   0  0  0  0  0  0  0  0  0  0  0  0
   -3.7600    0.9720    0.6470 H   0  0  0  0  0  0  0  0  0  0  0  0
  1  5  1  0  0  0  0
  1  6  1  0  0  0  0
  1  7  1  0  0  0  0
  1 22  1  0  0  0  0
  2  3  1  0  0  0  0
  2  5  1  0  0  0  0
  2  8  2  0  0  0  0
  3  4  1  0  0  0  0
  3 23  1  0  0  0  0
  4  9  2  0  0  0  0
  4 14  1  0  0  0  0
  5 24  1  0  0  0  0
  5 25  1  0  0  0  0
  6 11  1  0  0  0  0
  6 26  1  0  0  0  0
  6 27  1  0  0  0  0
  7 10  1  0  0  0  0
  7 28  1  0  0  0  0
  7 29  1  0  0  0  0
  9 13  1  0  0  0  0
  9 15  1  0  0  0  0
 10 12  1  0  0  0  0
 10 17  1  0  0  0  0
 10 30  1  0  0  0  0
 11 12  1  0  0  0  0
 11 16  1  0  0  0  0
 11 31  1  0  0  0  0
 12 32  1  0  0  0  0
 12 33  1  0  0  0  0
 13 18  1  0  0  0  0
 14 20  2  0  0  0  0
 14 34  1  0  0  0  0
 15 21  2  0  0  0  0
 15 35  1  0  0  0  0
 16 36  1  0  0  0  0
 16 37  1  0  0  0  0
 16 38  1  0  0  0  0
 17 39  1  0  0  0  0
 17 40  1  0  0  0  0
 17 41  1  0  0  0  0
 18 19  1  0  0  0  0
 18 42  1  0  0  0  0
 18 43  1  0  0  0  0
 19 44  1  0  0  0  0
 19 45  1  0  0  0  0
 19 46  1  0  0  0  0
 20 21  1  0  0  0  0
 20 47  1  0  0  0  0
 21 48  1  0  0  0  0
M  CHG  1   1   1
M  END
>  <$CLUSTER>
904

>  <INDEX>
509425

$$$$
InterBioScreen STOCK3S-96135
  MOE2020           3D

 45 48  0  0  0  0  0  0  0  0999 V2000
    1.1260    0.3360    0.2380 N   0  0  0  0  0  0  0  0  0  0  0  0
    1.7730   -0.9210    0.1800 C   0  0  0  0  0  0  0  0  0  0  0  0
    1.8530    1.4440    0.5110 N   0  0  0  0  0  0  0  0  0  0  0  0
   -0.2220    2.0580    0.2380 C   0  0  0  0  0  0  0  0  0  0  0  0
   -0.2090    0.6830    0.0560 C   0  0  0  0  0  0  0  0  0  0  0  0
    1.0460    2.4910    0.5140 N   0  0  0  0  0  0  0  0  0  0  0  0
    3.1340   -1.2340    0.3710 C   0  0  0  0  0  0  0  0  0  0  0  0
    1.0710   -2.0200   -0.0870 N   0  0  0  0  0  0  0  0  0  0  0  0
    3.2830   -2.5550    0.2190 N   0  0  0  0  0  0  0  0  0  0  0  0
   -1.3580    2.9580    0.1650 C   0  0  0  0  0  0  0  0  0  0  0  0
    2.0120   -3.0440   -0.0630 O   0  0  0  0  0  0  0  0  0  0  0  0
   -1.2960   -0.2380   -0.2540 C   0  0  0  0  0  0  0  0  0  0  0  0
   -2.0030    5.3260    0.3720 N   0  0  0  0  0  0  0  0  0  0  0  0
   -1.0390    4.2780    0.3960 N   0  0  0  0  0  0  0  0  0  0  0  0
   -2.5000    2.5820   -0.0810 O   0  0  0  0  0  0  0  0  0  0  0  0
    4.1170   -0.3590    0.6560 N   0  0  0  0  0  0  0  0  0  0  0  0
   -2.0300   -0.8360    0.7780 C   0  0  0  0  0  0  0  0  0  0  0  0
   -1.6240   -0.5190   -1.5870 C   0  0  0  0  0  0  0  0  0  0  0  0
   -1.5580    6.4880    0.3760 C   0  0  0  0  0  0  0  0  0  0  0  0
   -3.8780    7.4740    0.2800 C   0  0  0  0  0  0  0  0  0  0  0  0
   -2.5110    7.6430    0.3280 C   0  0  0  0  0  0  0  0  0  0  0  0
   -4.7260    8.5830    0.2370 C   0  0  0  0  0  0  0  0  0  0  0  0
   -2.6690   -1.3960   -1.8810 C   0  0  0  0  0  0  0  0  0  0  0  0
   -3.0740   -1.7120    0.4790 C   0  0  0  0  0  0  0  0  0  0  0  0
   -3.3930   -1.9930   -0.8490 C   0  0  0  0  0  0  0  0  0  0  0  0
   -6.0330    8.3240    0.1920 F   0  0  0  0  0  0  0  0  0  0  0  0
   -2.8060   10.0540    0.2920 C   0  0  0  0  0  0  0  0  0  0  0  0
   -4.1890    9.8720    0.2420 C   0  0  0  0  0  0  0  0  0  0  0  0
   -1.9560    8.9470    0.3350 C   0  0  0  0  0  0  0  0  0  0  0  0
   -4.5110   -2.9330   -1.1640 C   0  0  0  0  0  0  0  0  0  0  0  0
   -0.0770    4.5140    0.5920 H   0  0  0  0  0  0  0  0  0  0  0  0
    5.0650   -0.6860    0.7740 H   0  0  0  0  0  0  0  0  0  0  0  0
    3.9060    0.6240    0.7520 H   0  0  0  0  0  0  0  0  0  0  0  0
   -1.7870   -0.6190    1.8080 H   0  0  0  0  0  0  0  0  0  0  0  0
   -1.0670   -0.0560   -2.3880 H   0  0  0  0  0  0  0  0  0  0  0  0
   -0.4930    6.6630    0.4140 H   0  0  0  0  0  0  0  0  0  0  0  0
   -4.2960    6.4780    0.2760 H   0  0  0  0  0  0  0  0  0  0  0  0
   -2.9180   -1.6130   -2.9090 H   0  0  0  0  0  0  0  0  0  0  0  0
   -3.6360   -2.1730    1.2780 H   0  0  0  0  0  0  0  0  0  0  0  0
   -2.3930   11.0520    0.2970 H   0  0  0  0  0  0  0  0  0  0  0  0
   -4.8450   10.7290    0.2070 H   0  0  0  0  0  0  0  0  0  0  0  0
   -0.8850    9.0830    0.3730 H   0  0  0  0  0  0  0  0  0  0  0  0
   -4.6120   -3.0290   -2.2450 H   0  0  0  0  0  0  0  0  0  0  0  0
   -5.4400   -2.5460   -0.7450 H   0  0  0  0  0  0  0  0  0  0  0  0
   -4.2970   -3.9100   -0.7310 H   0  0  0  0  0  0  0  0  0  0  0  0
  1  2  1  0  0  0  0
  1  3  1  0  0  0  0
  1  5  1  0  0  0  0
  2  7  1  0  0  0  0
  2  8  2  0  0  0  0
  3  6  2  0  0  0  0
  4  5  2  0  0  0  0
  4  6  1  0  0  0  0
  4 10  1  0  0  0  0
  5 12  1  0  0  0  0
  7  9  2  0  0  0  0
  7 16  1  0  0  0  0
  8 11  1  0  0  0  0
  9 11  1  0  0  0  0
 10 14  1  0  0  0  0
 10 15  2  0  0  0  0
 12 17  1  0  0  0  0
 12 18  2  0  0  0  0
 13 14  1  0  0  0  0
 13 19  2  0  0  0  0
 14 31  1  0  0  0  0
 16 32  1  0  0  0  0
 16 33  1  0  0  0  0
 17 24  2  0  0  0  0
 17 34  1  0  0  0  0
 18 23  1  0  0  0  0
 18 35  1  0  0  0  0
 19 21  1  0  0  0  0
 19 36  1  0  0  0  0
 20 21  1  0  0  0  0
 20 22  2  0  0  0  0
 20 37  1  0  0  0  0
 21 29  2  0  0  0  0
 22 26  1  0  0  0  0
 22 28  1  0  0  0  0
 23 25  2  0  0  0  0
 23 38  1  0  0  0  0
 24 25  1  0  0  0  0
 24 39  1  0  0  0  0
 25 30  1  0  0  0  0
 27 28  2  0  0  0  0
 27 29  1  0  0  0  0
 27 40  1  0  0  0  0
 28 41  1  0  0  0  0
 29 42  1  0  0  0  0
 30 43  1  0  0  0  0
 30 44  1  0  0  0  0
 30 45  1  0  0  0  0
M  END
>  <$CLUSTER>
905

>  <INDEX>
347205

$$$$
Princeton Biomolecular OSSK_490751
  MOE2020           3D

 41 43  0  0  0  0  0  0  0  0999 V2000
   -0.4900   -0.6820   -0.4810 N   0  0  0  0  0  0  0  0  0  0  0  0
   -0.9000   -1.1420    0.7610 C   0  0  0  0  0  0  0  0  0  0  0  0
    0.2180    0.5210   -0.5110 C   0  0  0  0  0  0  0  0  0  0  0  0
    0.3620    1.0650    0.8530 C   0  0  0  0  0  0  0  0  0  0  0  0
    0.1280   -3.1950   -3.6210 S   0  0  0  0  0  0  0  0  0  0  0  0
   -0.3870    0.0030    1.9930 S   0  0  0  0  0  0  0  0  0  0  0  0
   -0.7470   -1.3850   -1.7470 C   0  0  0  0  0  0  0  0  0  0  0  0
    0.9670    2.1970    1.2250 C   0  0  0  0  0  0  0  0  0  0  0  0
    0.3950   -2.3250   -2.1030 C   0  0  0  0  0  0  0  0  0  0  0  0
   -1.7420   -2.5340    1.1430 S   0  0  0  0  0  0  0  0  0  0  0  0
   -1.0990   -3.9500   -3.3730 O   0  0  0  0  0  0  0  0  0  0  0  0
    1.3340   -4.0130   -3.7410 O   0  0  0  0  0  0  0  0  0  0  0  0
    0.6710    1.0600   -1.5130 O   0  0  0  0  0  0  0  0  0  0  0  0
    1.6520    3.2230    0.3820 C   0  0  0  0  0  0  0  0  0  0  0  0
    0.0110   -2.1290   -4.6130 O   0  5  0  0  0  0  0  0  0  0  0  0
    3.3830    3.5480   -2.8690 O   0  0  0  0  0  0  0  0  0  0  0  0
    2.8200    3.8330   -1.6450 C   0  0  0  0  0  0  0  0  0  0  0  0
    2.1770    2.8630   -0.8710 C   0  0  0  0  0  0  0  0  0  0  0  0
    2.6220    2.8380   -3.7710 C   0  0  0  0  0  0  0  0  0  0  0  0
    2.4170    5.4760    0.0700 C   0  0  0  0  0  0  0  0  0  0  0  0
    1.7740    4.5080    0.8450 C   0  0  0  0  0  0  0  0  0  0  0  0
    2.9380    5.1390   -1.1760 C   0  0  0  0  0  0  0  0  0  0  0  0
    3.2430    1.7730   -4.4270 C   0  0  0  0  0  0  0  0  0  0  0  0
    1.3090    3.1950   -4.0930 C   0  0  0  0  0  0  0  0  0  0  0  0
    0.6070    2.4570   -5.0460 C   0  0  0  0  0  0  0  0  0  0  0  0
    2.5350    1.0390   -5.3790 C   0  0  0  0  0  0  0  0  0  0  0  0
    1.2180    1.3780   -5.6850 C   0  0  0  0  0  0  0  0  0  0  0  0
   -1.6660   -1.9640   -1.6510 H   0  0  0  0  0  0  0  0  0  0  0  0
   -0.8620   -0.6500   -2.5440 H   0  0  0  0  0  0  0  0  0  0  0  0
    0.9600    2.3990    2.2860 H   0  0  0  0  0  0  0  0  0  0  0  0
    0.5080   -3.0540   -1.3000 H   0  0  0  0  0  0  0  0  0  0  0  0
    1.3100   -1.7400   -2.1940 H   0  0  0  0  0  0  0  0  0  0  0  0
    2.0850    1.8490   -1.2310 H   0  0  0  0  0  0  0  0  0  0  0  0
    2.5100    6.4870    0.4380 H   0  0  0  0  0  0  0  0  0  0  0  0
    1.3720    4.7720    1.8120 H   0  0  0  0  0  0  0  0  0  0  0  0
    3.4320    5.8880   -1.7770 H   0  0  0  0  0  0  0  0  0  0  0  0
    4.2670    1.5190   -4.1980 H   0  0  0  0  0  0  0  0  0  0  0  0
    0.8410    4.0380   -3.6060 H   0  0  0  0  0  0  0  0  0  0  0  0
   -0.4110    2.7210   -5.2900 H   0  0  0  0  0  0  0  0  0  0  0  0
    3.0080    0.2070   -5.8800 H   0  0  0  0  0  0  0  0  0  0  0  0
    0.6700    0.8040   -6.4180 H   0  0  0  0  0  0  0  0  0  0  0  0
  1  2  1  0  0  0  0
  1  3  1  0  0  0  0
  1  7  1  0  0  0  0
  2  6  1  0  0  0  0
  2 10  2  0  0  0  0
  3  4  1  0  0  0  0
  3 13  2  0  0  0  0
  4  6  1  0  0  0  0
  4  8  2  0  0  0  0
  5  9  1  0  0  0  0
  5 11  2  0  0  0  0
  5 12  2  0  0  0  0
  5 15  1  0  0  0  0
  7  9  1  0  0  0  0
  7 28  1  0  0  0  0
  7 29  1  0  0  0  0
  8 14  1  0  0  0  0
  8 30  1  0  0  0  0
  9 31  1  0  0  0  0
  9 32  1  0  0  0  0
 14 18  2  0  0  0  0
 14 21  1  0  0  0  0
 16 17  1  0  0  0  0
 16 19  1  0  0  0  0
 17 18  1  0  0  0  0
 17 22  2  0  0  0  0
 18 33  1  0  0  0  0
 19 23  1  0  0  0  0
 19 24  2  0  0  0  0
 20 21  2  0  0  0  0
 20 22  1  0  0  0  0
 20 34  1  0  0  0  0
 21 35  1  0  0  0  0
 22 36  1  0  0  0  0
 23 26  2  0  0  0  0
 23 37  1  0  0  0  0
 24 25  1  0  0  0  0
 24 38  1  0  0  0  0
 25 27  2  0  0  0  0
 25 39  1  0  0  0  0
 26 27  1  0  0  0  0
 26 40  1  0  0  0  0
 27 41  1  0  0  0  0
M  CHG  1  15  -1
M  END
>  <$CLUSTER>
906

>  <INDEX>
586702

$$$$
Princeton Biomolecular OSSK_476333
  MOE2020           3D

 31 32  0  0  0  0  0  0  0  0999 V2000
    2.8990   -3.3530    4.7300 C   0  0  0  0  0  0  0  0  0  0  0  0
    3.1070   -2.7720    3.5210 O   0  0  0  0  0  0  0  0  0  0  0  0
    1.6090   -3.1380    5.1540 C   0  0  0  0  0  0  0  0  0  0  0  0
   -0.2470    0.1920   -0.3390 C   0  0  0  0  0  0  0  0  0  0  0  0
    1.9340   -2.1870    3.1880 C   0  0  0  0  0  0  0  0  0  0  0  0
    0.8360   -0.8920    1.4930 N   0  0  0  0  0  0  0  0  0  0  0  0
    0.9850   -2.3740    4.1400 C   0  0  0  0  0  0  0  0  0  0  0  0
    4.0560   -4.0670    5.3120 C   0  0  0  0  0  0  0  0  0  0  0  0
    1.9010   -1.4670    1.8760 C   0  0  0  0  0  0  0  0  0  0  0  0
    0.9130   -0.2710    0.2620 N   0  0  0  0  0  0  0  0  0  0  0  0
   -1.3800    0.1010    0.1300 O   0  0  0  0  0  0  0  0  0  0  0  0
    3.9490   -4.7040    6.5590 C   0  0  0  0  0  0  0  0  0  0  0  0
    5.2870   -4.1280    4.6400 C   0  0  0  0  0  0  0  0  0  0  0  0
    0.0060    0.7850   -1.5620 N   0  0  0  0  0  0  0  0  0  0  0  0
    6.3760   -4.8040    5.1970 C   0  0  0  0  0  0  0  0  0  0  0  0
    5.0390   -5.3800    7.1150 C   0  0  0  0  0  0  0  0  0  0  0  0
    6.2520   -5.4300    6.4340 C   0  0  0  0  0  0  0  0  0  0  0  0
    7.4120   -6.1540    7.0330 C   0  0  0  0  0  0  0  0  0  0  0  0
    1.1620   -3.4830    6.0750 H   0  0  0  0  0  0  0  0  0  0  0  0
   -0.0330   -2.0150    4.1260 H   0  0  0  0  0  0  0  0  0  0  0  0
    2.7840   -1.4370    1.2550 H   0  0  0  0  0  0  0  0  0  0  0  0
    1.8060   -0.1550   -0.1960 H   0  0  0  0  0  0  0  0  0  0  0  0
    3.0120   -4.6710    7.0960 H   0  0  0  0  0  0  0  0  0  0  0  0
    5.3940   -3.6460    3.6790 H   0  0  0  0  0  0  0  0  0  0  0  0
   -0.7550    1.1640   -2.1070 H   0  0  0  0  0  0  0  0  0  0  0  0
    0.9520    0.8390   -1.9110 H   0  0  0  0  0  0  0  0  0  0  0  0
    7.3160   -4.8410    4.6660 H   0  0  0  0  0  0  0  0  0  0  0  0
    4.9400   -5.8650    8.0750 H   0  0  0  0  0  0  0  0  0  0  0  0
    8.2680   -6.0860    6.3620 H   0  0  0  0  0  0  0  0  0  0  0  0
    7.1490   -7.2010    7.1820 H   0  0  0  0  0  0  0  0  0  0  0  0
    7.6660   -5.7030    7.9920 H   0  0  0  0  0  0  0  0  0  0  0  0
  1  2  1  0  0  0  0
  1  3  2  0  0  0  0
  1  8  1  0  0  0  0
  2  5  1  0  0  0  0
  3  7  1  0  0  0  0
  3 19  1  0  0  0  0
  4 10  1  0  0  0  0
  4 11  2  0  0  0  0
  4 14  1  0  0  0  0
  5  7  2  0  0  0  0
  5  9  1  0  0  0  0
  6  9  2  0  0  0  0
  6 10  1  0  0  0  0
  7 20  1  0  0  0  0
  8 12  1  0  0  0  0
  8 13  2  0  0  0  0
  9 21  1  0  0  0  0
 10 22  1  0  0  0  0
 12 16  2  0  0  0  0
 12 23  1  0  0  0  0
 13 15  1  0  0  0  0
 13 24  1  0  0  0  0
 14 25  1  0  0  0  0
 14 26  1  0  0  0  0
 15 17  2  0  0  0  0
 15 27  1  0  0  0  0
 16 17  1  0  0  0  0
 16 28  1  0  0  0  0
 17 18  1  0  0  0  0
 18 29  1  0  0  0  0
 18 30  1  0  0  0  0
 18 31  1  0  0  0  0
M  END
>  <$CLUSTER>
907

>  <INDEX>
585645

$$$$
Otava 7119720121
  MOE2020           3D

 61 64  0  0  1  0  0  0  0  0999 V2000
   -0.5530   -2.3390    0.5920 S   0  0  0  0  0  0  0  0  0  0  0  0
   -0.2700   -0.6550    0.5080 N   0  0  0  0  0  0  0  0  0  0  0  0
   -0.9580    0.1670   -0.5210 C   0  0  3  0  0  0  0  0  0  0  0  0
   -0.2460    0.1970   -1.8610 C   0  0  0  0  0  0  0  0  0  0  0  0
    1.0380   -0.1270    0.9930 C   0  0  0  0  0  0  0  0  0  0  0  0
   -1.1690    1.5830    0.0330 C   0  0  0  0  0  0  0  0  0  0  0  0
    0.4060   -2.9490   -0.7760 C   0  0  0  0  0  0  0  0  0  0  0  0
   -1.0800    0.5270   -2.9090 N   0  0  0  0  0  0  0  0  0  0  0  0
    0.0510   -2.8630    1.8020 O   0  0  0  0  0  0  0  0  0  0  0  0
   -1.9460   -2.6110    0.2940 O   0  0  0  0  0  0  0  0  0  0  0  0
    1.1410    1.3780    1.0370 C   0  0  0  0  0  0  0  0  0  0  0  0
    0.1010    2.1950    0.5640 C   0  0  0  0  0  0  0  0  0  0  0  0
    0.9500   -0.0360   -2.0170 O   0  0  0  0  0  0  0  0  0  0  0  0
    1.7370   -3.2910   -0.5720 C   0  0  0  0  0  0  0  0  0  0  0  0
   -0.1900   -3.0440   -2.0280 C   0  0  0  0  0  0  0  0  0  0  0  0
    1.8980   -3.8860   -2.9100 C   0  0  0  0  0  0  0  0  0  0  0  0
   -0.6720    0.6250   -4.2980 C   0  0  0  0  0  0  0  0  0  0  0  0
    2.4830   -3.7700   -1.6480 C   0  0  0  0  0  0  0  0  0  0  0  0
    0.5640   -3.5240   -3.0990 C   0  0  0  0  0  0  0  0  0  0  0  0
    2.5370   -4.3400   -4.0500 O   0  0  0  0  0  0  0  0  0  0  0  0
    0.2280    3.5900    0.6370 C   0  0  0  0  0  0  0  0  0  0  0  0
    2.3050    1.9710    1.5490 C   0  0  0  0  0  0  0  0  0  0  0  0
    3.9060   -4.7240   -3.9210 C   0  0  0  0  0  0  0  0  0  0  0  0
   -1.5090    1.6620   -5.0400 C   0  0  0  0  0  0  0  0  0  0  0  0
   -0.7660   -0.7390   -4.9740 C   0  0  0  0  0  0  0  0  0  0  0  0
    4.3920   -5.1850   -5.2830 C   0  0  0  0  0  0  0  0  0  0  0  0
    2.4270    3.3590    1.6040 C   0  0  0  0  0  0  0  0  0  0  0  0
    1.3890    4.1680    1.1510 C   0  0  0  0  0  0  0  0  0  0  0  0
   -0.4020   -0.6710   -6.4570 C   0  0  0  0  0  0  0  0  0  0  0  0
   -1.1490    1.7410   -6.5180 C   0  0  0  0  0  0  0  0  0  0  0  0
   -1.2400    0.3740   -7.1900 C   0  0  0  0  0  0  0  0  0  0  0  0
   -1.9190   -0.3040   -0.7270 H   0  0  0  0  0  0  0  0  0  0  0  0
    1.8200   -0.5000    0.3310 H   0  0  0  0  0  0  0  0  0  0  0  0
    1.2030   -0.5070    2.0010 H   0  0  0  0  0  0  0  0  0  0  0  0
   -1.8980    1.5360    0.8420 H   0  0  0  0  0  0  0  0  0  0  0  0
   -1.5540    2.2160   -0.7660 H   0  0  0  0  0  0  0  0  0  0  0  0
   -2.0490    0.7150   -2.6930 H   0  0  0  0  0  0  0  0  0  0  0  0
    2.1870   -3.1870    0.4040 H   0  0  0  0  0  0  0  0  0  0  0  0
   -1.2200   -2.7510   -2.1690 H   0  0  0  0  0  0  0  0  0  0  0  0
    0.3670    0.9540   -4.3300 H   0  0  0  0  0  0  0  0  0  0  0  0
    3.5160   -4.0520   -1.5050 H   0  0  0  0  0  0  0  0  0  0  0  0
    0.1140   -3.6160   -4.0770 H   0  0  0  0  0  0  0  0  0  0  0  0
   -0.5780    4.2210    0.2930 H   0  0  0  0  0  0  0  0  0  0  0  0
    3.1130    1.3480    1.9030 H   0  0  0  0  0  0  0  0  0  0  0  0
    3.9960   -5.5370   -3.2010 H   0  0  0  0  0  0  0  0  0  0  0  0
    4.4990   -3.8740   -3.5850 H   0  0  0  0  0  0  0  0  0  0  0  0
   -1.3420    2.6380   -4.5850 H   0  0  0  0  0  0  0  0  0  0  0  0
   -2.5620    1.3940   -4.9490 H   0  0  0  0  0  0  0  0  0  0  0  0
   -1.7870   -1.1090   -4.8790 H   0  0  0  0  0  0  0  0  0  0  0  0
   -0.0830   -1.4260   -4.4750 H   0  0  0  0  0  0  0  0  0  0  0  0
    3.7950   -6.0350   -5.6130 H   0  0  0  0  0  0  0  0  0  0  0  0
    5.4390   -5.4810   -5.2140 H   0  0  0  0  0  0  0  0  0  0  0  0
    4.2910   -4.3700   -6.0000 H   0  0  0  0  0  0  0  0  0  0  0  0
    3.3270    3.8060    1.9980 H   0  0  0  0  0  0  0  0  0  0  0  0
    1.4820    5.2430    1.1970 H   0  0  0  0  0  0  0  0  0  0  0  0
   -0.5770   -1.6470   -6.9100 H   0  0  0  0  0  0  0  0  0  0  0  0
    0.6520   -0.4100   -6.5520 H   0  0  0  0  0  0  0  0  0  0  0  0
   -0.1300    2.1160   -6.6150 H   0  0  0  0  0  0  0  0  0  0  0  0
   -1.8370    2.4260   -7.0140 H   0  0  0  0  0  0  0  0  0  0  0  0
   -2.2810    0.0520   -7.1960 H   0  0  0  0  0  0  0  0  0  0  0  0
   -0.8800    0.4600   -8.2150 H   0  0  0  0  0  0  0  0  0  0  0  0
  1  2  1  0  0  0  0
  1  7  1  0  0  0  0
  1  9  2  0  0  0  0
  1 10  2  0  0  0  0
  2  3  1  0  0  0  0
  2  5  1  0  0  0  0
  3  4  1  0  0  0  0
  3  6  1  0  0  0  0
  3 32  1  0  0  0  0
  4  8  1  0  0  0  0
  4 13  2  0  0  0  0
  5 11  1  0  0  0  0
  5 33  1  0  0  0  0
  5 34  1  0  0  0  0
  6 12  1  0  0  0  0
  6 35  1  0  0  0  0
  6 36  1  0  0  0  0
  7 14  2  0  0  0  0
  7 15  1  0  0  0  0
  8 17  1  0  0  0  0
  8 37  1  0  0  0  0
 11 12  2  0  0  0  0
 11 22  1  0  0  0  0
 12 21  1  0  0  0  0
 14 18  1  0  0  0  0
 14 38  1  0  0  0  0
 15 19  2  0  0  0  0
 15 39  1  0  0  0  0
 16 18  2  0  0  0  0
 16 19  1  0  0  0  0
 16 20  1  0  0  0  0
 17 24  1  0  0  0  0
 17 25  1  0  0  0  0
 17 40  1  0  0  0  0
 18 41  1  0  0  0  0
 19 42  1  0  0  0  0
 20 23  1  0  0  0  0
 21 28  2  0  0  0  0
 21 43  1  0  0  0  0
 22 27  2  0  0  0  0
 22 44  1  0  0  0  0
 23 26  1  0  0  0  0
 23 45  1  0  0  0  0
 23 46  1  0  0  0  0
 24 30  1  0  0  0  0
 24 47  1  0  0  0  0
 24 48  1  0  0  0  0
 25 29  1  0  0  0  0
 25 49  1  0  0  0  0
 25 50  1  0  0  0  0
 26 51  1  0  0  0  0
 26 52  1  0  0  0  0
 26 53  1  0  0  0  0
 27 28  1  0  0  0  0
 27 54  1  0  0  0  0
 28 55  1  0  0  0  0
 29 31  1  0  0  0  0
 29 56  1  0  0  0  0
 29 57  1  0  0  0  0
 30 31  1  0  0  0  0
 30 58  1  0  0  0  0
 30 59  1  0  0  0  0
 31 60  1  0  0  0  0
 31 61  1  0  0  0  0
M  END
>  <$CLUSTER>
908

>  <INDEX>
484159

$$$$
Otava 7015510157
  MOE2020           3D

 48 51  0  0  0  0  0  0  0  0999 V2000
   -1.8580   -0.5390   -0.4590 C   0  0  0  0  0  0  0  0  0  0  0  0
    0.4500    0.3470   -0.3320 C   0  0  0  0  0  0  0  0  0  0  0  0
   -0.6670   -0.4030    0.2640 C   0  0  0  0  0  0  0  0  0  0  0  0
   -1.9930    0.0300   -1.7340 O   0  0  0  0  0  0  0  0  0  0  0  0
   -2.9580   -1.2430    0.0570 C   0  0  0  0  0  0  0  0  0  0  0  0
   -0.9640    0.7370   -2.3140 C   0  0  0  0  0  0  0  0  0  0  0  0
    0.2750    0.8720   -1.5500 C   0  0  0  0  0  0  0  0  0  0  0  0
   -0.5800   -0.9890    1.5320 C   0  0  0  0  0  0  0  0  0  0  0  0
   -2.8440   -1.8190    1.3290 C   0  0  0  0  0  0  0  0  0  0  0  0
   -5.1450   -3.7910    3.4280 C   0  0  0  0  0  0  0  0  0  0  0  0
    1.7680    0.5830    0.2940 C   0  0  0  0  0  0  0  0  0  0  0  0
   -5.1190   -4.3870    4.6660 N   0  0  0  0  0  0  0  0  0  0  0  0
   -3.9580   -2.5000    1.7870 O   0  0  0  0  0  0  0  0  0  0  0  0
   -1.0720    1.2380   -3.4300 O   0  0  0  0  0  0  0  0  0  0  0  0
   -1.6630   -1.6920    2.0600 C   0  0  0  0  0  0  0  0  0  0  0  0
   -6.1340   -3.8330    2.6810 O   0  0  0  0  0  0  0  0  0  0  0  0
   -3.8850   -3.1010    3.0750 C   0  0  0  0  0  0  0  0  0  0  0  0
   -6.0950   -5.1270    5.3630 C   0  0  0  0  0  0  0  0  0  0  0  0
   -4.2320   -1.3820   -0.7300 C   0  0  0  0  0  0  0  0  0  0  0  0
    1.9760    1.7160    1.0910 C   0  0  0  0  0  0  0  0  0  0  0  0
    2.8160   -0.3250    0.0900 C   0  0  0  0  0  0  0  0  0  0  0  0
   -7.3640   -5.3940    4.8400 C   0  0  0  0  0  0  0  0  0  0  0  0
   -5.7720   -5.6180    6.6380 C   0  0  0  0  0  0  0  0  0  0  0  0
    4.0600   -0.0990    0.6800 C   0  0  0  0  0  0  0  0  0  0  0  0
    3.2230    1.9370    1.6790 C   0  0  0  0  0  0  0  0  0  0  0  0
   -6.6990   -6.3590    7.3740 C   0  0  0  0  0  0  0  0  0  0  0  0
   -8.2910   -6.1360    5.5800 C   0  0  0  0  0  0  0  0  0  0  0  0
    4.2630    1.0310    1.4730 C   0  0  0  0  0  0  0  0  0  0  0  0
   -7.9600   -6.6180    6.8450 C   0  0  0  0  0  0  0  0  0  0  0  0
    1.0910    1.4240   -1.9920 H   0  0  0  0  0  0  0  0  0  0  0  0
    0.3310   -0.8960    2.1050 H   0  0  0  0  0  0  0  0  0  0  0  0
   -4.2470   -4.2750    5.1640 H   0  0  0  0  0  0  0  0  0  0  0  0
   -1.5870   -2.1400    3.0400 H   0  0  0  0  0  0  0  0  0  0  0  0
   -3.0710   -3.8260    3.0810 H   0  0  0  0  0  0  0  0  0  0  0  0
   -3.6870   -2.3260    3.8160 H   0  0  0  0  0  0  0  0  0  0  0  0
   -4.1260   -0.8700   -1.6860 H   0  0  0  0  0  0  0  0  0  0  0  0
   -5.0550   -0.9390   -0.1700 H   0  0  0  0  0  0  0  0  0  0  0  0
   -4.4380   -2.4380   -0.9040 H   0  0  0  0  0  0  0  0  0  0  0  0
    1.1720    2.4190    1.2510 H   0  0  0  0  0  0  0  0  0  0  0  0
    2.6610   -1.2000   -0.5240 H   0  0  0  0  0  0  0  0  0  0  0  0
   -7.6300   -5.0260    3.8600 H   0  0  0  0  0  0  0  0  0  0  0  0
   -4.7950   -5.4200    7.0540 H   0  0  0  0  0  0  0  0  0  0  0  0
    4.8670   -0.8000    0.5230 H   0  0  0  0  0  0  0  0  0  0  0  0
    3.3820    2.8100    2.2940 H   0  0  0  0  0  0  0  0  0  0  0  0
   -6.4370   -6.7310    8.3540 H   0  0  0  0  0  0  0  0  0  0  0  0
   -9.2690   -6.3360    5.1680 H   0  0  0  0  0  0  0  0  0  0  0  0
    5.2270    1.2040    1.9280 H   0  0  0  0  0  0  0  0  0  0  0  0
   -8.6790   -7.1900    7.4120 H   0  0  0  0  0  0  0  0  0  0  0  0
  1  3  2  0  0  0  0
  1  4  1  0  0  0  0
  1  5  1  0  0  0  0
  2  3  1  0  0  0  0
  2  7  2  0  0  0  0
  2 11  1  0  0  0  0
  3  8  1  0  0  0  0
  4  6  1  0  0  0  0
  5  9  2  0  0  0  0
  5 19  1  0  0  0  0
  6  7  1  0  0  0  0
  6 14  2  0  0  0  0
  7 30  1  0  0  0  0
  8 15  2  0  0  0  0
  8 31  1  0  0  0  0
  9 13  1  0  0  0  0
  9 15  1  0  0  0  0
 10 12  1  0  0  0  0
 10 16  2  0  0  0  0
 10 17  1  0  0  0  0
 11 20  1  0  0  0  0
 11 21  2  0  0  0  0
 12 18  1  0  0  0  0
 12 32  1  0  0  0  0
 13 17  1  0  0  0  0
 15 33  1  0  0  0  0
 17 34  1  0  0  0  0
 17 35  1  0  0  0  0
 18 22  1  0  0  0  0
 18 23  2  0  0  0  0
 19 36  1  0  0  0  0
 19 37  1  0  0  0  0
 19 38  1  0  0  0  0
 20 25  2  0  0  0  0
 20 39  1  0  0  0  0
 21 24  1  0  0  0  0
 21 40  1  0  0  0  0
 22 27  2  0  0  0  0
 22 41  1  0  0  0  0
 23 26  1  0  0  0  0
 23 42  1  0  0  0  0
 24 28  2  0  0  0  0
 24 43  1  0  0  0  0
 25 28  1  0  0  0  0
 25 44  1  0  0  0  0
 26 29  2  0  0  0  0
 26 45  1  0  0  0  0
 27 29  1  0  0  0  0
 27 46  1  0  0  0  0
 28 47  1  0  0  0  0
 29 48  1  0  0  0  0
M  END
>  <$CLUSTER>
909

>  <INDEX>
480910

$$$$
Comgenex CGX-2104791
  MOE2020           3D

 50 51  0  0  0  0  0  0  0  0999 V2000
   -0.4340    3.8970    1.7290 C   0  0  0  0  0  0  0  0  0  0  0  0
   -0.6310    2.5490    1.9570 N   0  0  0  0  0  0  0  0  0  0  0  0
    0.3760    1.8880    1.4520 C   0  0  0  0  0  0  0  0  0  0  0  0
    0.4990   -0.6450   -0.8220 C   0  0  0  0  0  0  0  0  0  0  0  0
   -0.1640   -0.2630    0.3480 N   0  0  0  0  0  0  0  0  0  0  0  0
    0.7160    4.2280    1.0460 C   0  0  0  0  0  0  0  0  0  0  0  0
   -1.4090    4.8830    2.1940 C   0  0  0  0  0  0  0  0  0  0  0  0
    1.5920    2.8040    0.6710 S   0  0  0  0  0  0  0  0  0  0  0  0
    0.4860    0.3720    1.5030 C   0  0  0  0  0  0  0  0  0  0  0  0
    1.9780   -0.3550   -0.8910 C   0  0  0  0  0  0  0  0  0  0  0  0
   -0.0530   -1.2040   -1.7730 O   0  0  0  0  0  0  0  0  0  0  0  0
   -1.6060   -0.5100    0.4550 C   0  0  0  0  0  0  0  0  0  0  0  0
   -1.3050    6.0920    2.0260 O   0  0  0  0  0  0  0  0  0  0  0  0
    2.5480   -0.2120   -2.1470 C   0  0  0  0  0  0  0  0  0  0  0  0
    2.7440   -0.2420    0.2640 C   0  0  0  0  0  0  0  0  0  0  0  0
   -2.4610    4.3190    2.8420 O   0  0  0  0  0  0  0  0  0  0  0  0
    4.6940    0.1800   -1.1080 C   0  0  0  0  0  0  0  0  0  0  0  0
    3.9130    0.0580   -2.2560 C   0  0  0  0  0  0  0  0  0  0  0  0
    4.1110    0.0280    0.1500 C   0  0  0  0  0  0  0  0  0  0  0  0
   -1.8990   -1.8670    1.0750 C   0  0  0  0  0  0  0  0  0  0  0  0
    6.0270    0.4450   -1.3440 O   0  0  0  0  0  0  0  0  0  0  0  0
   -3.3850   -2.1310    1.1770 C   0  0  0  0  0  0  0  0  0  0  0  0
   -3.4740    5.1660    3.3410 C   0  0  0  0  0  0  0  0  0  0  0  0
    6.8710    0.5770   -0.2050 C   0  0  0  0  0  0  0  0  0  0  0  0
   -4.0920   -2.2220   -0.1800 C   0  0  0  0  0  0  0  0  0  0  0  0
   -3.6230   -3.4610    1.9440 C   0  0  0  0  0  0  0  0  0  0  0  0
    1.0190    5.2320    0.7870 H   0  0  0  0  0  0  0  0  0  0  0  0
    0.0100    0.0150    2.4160 H   0  0  0  0  0  0  0  0  0  0  0  0
    1.5400    0.0950    1.5110 H   0  0  0  0  0  0  0  0  0  0  0  0
   -2.0450   -0.4750   -0.5420 H   0  0  0  0  0  0  0  0  0  0  0  0
   -2.0520    0.2660    1.0770 H   0  0  0  0  0  0  0  0  0  0  0  0
    1.9400   -0.3090   -3.0340 H   0  0  0  0  0  0  0  0  0  0  0  0
    2.2890   -0.3610    1.2360 H   0  0  0  0  0  0  0  0  0  0  0  0
    4.3640    0.1720   -3.2300 H   0  0  0  0  0  0  0  0  0  0  0  0
    4.7180    0.1190    1.0390 H   0  0  0  0  0  0  0  0  0  0  0  0
   -1.4660   -1.8990    2.0750 H   0  0  0  0  0  0  0  0  0  0  0  0
   -1.4450   -2.6420    0.4580 H   0  0  0  0  0  0  0  0  0  0  0  0
   -3.8090   -1.2770    1.7060 H   0  0  0  0  0  0  0  0  0  0  0  0
   -4.2410    4.5660    3.8300 H   0  0  0  0  0  0  0  0  0  0  0  0
   -3.9200    5.7240    2.5170 H   0  0  0  0  0  0  0  0  0  0  0  0
   -3.0440    5.8620    4.0610 H   0  0  0  0  0  0  0  0  0  0  0  0
    7.8910    0.7840   -0.5300 H   0  0  0  0  0  0  0  0  0  0  0  0
    6.8540   -0.3490    0.3690 H   0  0  0  0  0  0  0  0  0  0  0  0
    6.5150    1.3980    0.4180 H   0  0  0  0  0  0  0  0  0  0  0  0
   -3.6940   -3.0670   -0.7410 H   0  0  0  0  0  0  0  0  0  0  0  0
   -3.9230   -1.3020   -0.7400 H   0  0  0  0  0  0  0  0  0  0  0  0
   -5.1620   -2.3610   -0.0240 H   0  0  0  0  0  0  0  0  0  0  0  0
   -3.1850   -4.2870    1.3830 H   0  0  0  0  0  0  0  0  0  0  0  0
   -4.6940   -3.6270    2.0590 H   0  0  0  0  0  0  0  0  0  0  0  0
   -3.1570   -3.4020    2.9270 H   0  0  0  0  0  0  0  0  0  0  0  0
  1  2  1  0  0  0  0
  1  6  2  0  0  0  0
  1  7  1  0  0  0  0
  2  3  2  0  0  0  0
  3  8  1  0  0  0  0
  3  9  1  0  0  0  0
  4  5  1  0  0  0  0
  4 10  1  0  0  0  0
  4 11  2  0  0  0  0
  5  9  1  0  0  0  0
  5 12  1  0  0  0  0
  6  8  1  0  0  0  0
  6 27  1  0  0  0  0
  7 13  2  0  0  0  0
  7 16  1  0  0  0  0
  9 28  1  0  0  0  0
  9 29  1  0  0  0  0
 10 14  2  0  0  0  0
 10 15  1  0  0  0  0
 12 20  1  0  0  0  0
 12 30  1  0  0  0  0
 12 31  1  0  0  0  0
 14 18  1  0  0  0  0
 14 32  1  0  0  0  0
 15 19  2  0  0  0  0
 15 33  1  0  0  0  0
 16 23  1  0  0  0  0
 17 18  2  0  0  0  0
 17 19  1  0  0  0  0
 17 21  1  0  0  0  0
 18 34  1  0  0  0  0
 19 35  1  0  0  0  0
 20 22  1  0  0  0  0
 20 36  1  0  0  0  0
 20 37  1  0  0  0  0
 21 24  1  0  0  0  0
 22 25  1  0  0  0  0
 22 26  1  0  0  0  0
 22 38  1  0  0  0  0
 23 39  1  0  0  0  0
 23 40  1  0  0  0  0
 23 41  1  0  0  0  0
 24 42  1  0  0  0  0
 24 43  1  0  0  0  0
 24 44  1  0  0  0  0
 25 45  1  0  0  0  0
 25 46  1  0  0  0  0
 25 47  1  0  0  0  0
 26 48  1  0  0  0  0
 26 49  1  0  0  0  0
 26 50  1  0  0  0  0
M  END
>  <$CLUSTER>
910

>  <INDEX>
246210

$$$$
Princeton Biomolecular OSSK_553208
  MOE2020           3D

 32 34  0  0  0  0  0  0  0  0999 V2000
    0.1520   -0.9020    0.2370 C   0  0  0  0  0  0  0  0  0  0  0  0
    0.5150    0.1110   -0.6140 N   0  0  0  0  0  0  0  0  0  0  0  0
    1.9400   -1.5480   -1.4300 C   0  0  0  0  0  0  0  0  0  0  0  0
    1.4850   -0.1490   -1.5590 C   0  0  0  0  0  0  0  0  0  0  0  0
    1.0800   -2.3320   -0.1400 S   0  0  0  0  0  0  0  0  0  0  0  0
   -0.7230   -0.8860    1.1870 N   0  0  0  0  0  0  0  0  0  0  0  0
    2.8640   -2.1790   -2.1600 C   0  0  0  0  0  0  0  0  0  0  0  0
    1.9000    0.6620   -2.3760 O   0  0  0  0  0  0  0  0  0  0  0  0
   -1.4300    0.3030    1.4300 C   0  0  0  0  0  0  0  0  0  0  0  0
    3.6850   -1.6540   -3.2930 C   0  0  0  0  0  0  0  0  0  0  0  0
   -0.9430    1.2410    2.3480 C   0  0  0  0  0  0  0  0  0  0  0  0
    4.8860   -2.2500   -3.5910 C   0  0  0  0  0  0  0  0  0  0  0  0
   -1.6550    2.4150    2.6010 C   0  0  0  0  0  0  0  0  0  0  0  0
    5.6620   -1.7750   -4.6510 C   0  0  0  0  0  0  0  0  0  0  0  0
   -0.9750    3.6390    3.8110 Br  0  0  0  0  0  0  0  0  0  0  0  0
    6.8370   -2.3050   -4.9950 F   0  0  0  0  0  0  0  0  0  0  0  0
    4.0000   -0.0940   -5.1140 C   0  0  0  0  0  0  0  0  0  0  0  0
   -3.3600    1.7190    1.0390 C   0  0  0  0  0  0  0  0  0  0  0  0
   -2.6500    0.5450    0.7860 C   0  0  0  0  0  0  0  0  0  0  0  0
    3.2220   -0.5670   -4.0530 C   0  0  0  0  0  0  0  0  0  0  0  0
   -2.8610    2.6550    1.9450 C   0  0  0  0  0  0  0  0  0  0  0  0
    5.2200   -0.6960   -5.4110 C   0  0  0  0  0  0  0  0  0  0  0  0
    0.0840    1.0220   -0.5500 H   0  0  0  0  0  0  0  0  0  0  0  0
    3.0420   -3.2110   -1.8950 H   0  0  0  0  0  0  0  0  0  0  0  0
   -0.0120    1.0560    2.8630 H   0  0  0  0  0  0  0  0  0  0  0  0
    5.2310   -3.0880   -3.0040 H   0  0  0  0  0  0  0  0  0  0  0  0
    3.6540    0.7410   -5.7050 H   0  0  0  0  0  0  0  0  0  0  0  0
   -4.2960    1.9030    0.5330 H   0  0  0  0  0  0  0  0  0  0  0  0
   -3.0430   -0.1810    0.0900 H   0  0  0  0  0  0  0  0  0  0  0  0
    2.2760   -0.1020   -3.8200 H   0  0  0  0  0  0  0  0  0  0  0  0
   -3.4090    3.5650    2.1380 H   0  0  0  0  0  0  0  0  0  0  0  0
    5.8210   -0.3270   -6.2290 H   0  0  0  0  0  0  0  0  0  0  0  0
  1  2  1  0  0  0  0
  1  5  1  0  0  0  0
  1  6  2  0  0  0  0
  2  4  1  0  0  0  0
  2 23  1  0  0  0  0
  3  4  1  0  0  0  0
  3  5  1  0  0  0  0
  3  7  2  0  0  0  0
  4  8  2  0  0  0  0
  6  9  1  0  0  0  0
  7 10  1  0  0  0  0
  7 24  1  0  0  0  0
  9 11  2  0  0  0  0
  9 19  1  0  0  0  0
 10 12  2  0  0  0  0
 10 20  1  0  0  0  0
 11 13  1  0  0  0  0
 11 25  1  0  0  0  0
 12 14  1  0  0  0  0
 12 26  1  0  0  0  0
 13 15  1  0  0  0  0
 13 21  2  0  0  0  0
 14 16  1  0  0  0  0
 14 22  2  0  0  0  0
 17 20  2  0  0  0  0
 17 22  1  0  0  0  0
 17 27  1  0  0  0  0
 18 19  2  0  0  0  0
 18 21  1  0  0  0  0
 18 28  1  0  0  0  0
 19 29  1  0  0  0  0
 20 30  1  0  0  0  0
 21 31  1  0  0  0  0
 22 32  1  0  0  0  0
M  END
>  <$CLUSTER>
911

>  <INDEX>
588666

$$$$
Specs AG-690/33075013
  MOE2020           3D

 38 41  0  0  0  0  0  0  0  0999 V2000
   -0.7170   -0.3240    0.1300 N   0  0  0  0  0  0  0  0  0  0  0  0
    1.1200    0.9110   -0.1910 N   0  0  0  0  0  0  0  0  0  0  0  0
    0.6520   -0.3180   -0.1250 C   0  0  0  0  0  0  0  0  0  0  0  0
    0.0360    1.7230    0.0270 C   0  0  0  0  0  0  0  0  0  0  0  0
   -1.1080    0.9870    0.2270 C   0  0  0  0  0  0  0  0  0  0  0  0
   -1.4730   -1.4860    0.2510 C   0  0  0  0  0  0  0  0  0  0  0  0
    1.2890   -1.5850   -0.2670 C   0  0  0  0  0  0  0  0  0  0  0  0
   -0.8660   -2.6770    0.1160 C   0  0  0  0  0  0  0  0  0  0  0  0
    0.5640   -2.7150   -0.1520 C   0  0  0  0  0  0  0  0  0  0  0  0
    0.1350    3.1770    0.0340 C   0  0  0  0  0  0  0  0  0  0  0  0
    0.3860    5.9820    0.0380 C   0  0  0  0  0  0  0  0  0  0  0  0
    1.3790    3.7900   -0.1870 C   0  0  0  0  0  0  0  0  0  0  0  0
   -0.9810    3.9980    0.2570 C   0  0  0  0  0  0  0  0  0  0  0  0
    1.5030    5.1820   -0.1860 C   0  0  0  0  0  0  0  0  0  0  0  0
   -0.8550    5.3910    0.2590 C   0  0  0  0  0  0  0  0  0  0  0  0
    0.4770    7.4630    0.0650 C   0  0  0  0  0  0  0  0  0  0  0  0
   -1.5970   -3.9660    0.2290 C   0  0  0  0  0  0  0  0  0  0  0  0
   -0.4940    8.2970   -0.5160 C   0  0  0  0  0  0  0  0  0  0  0  0
    1.6100    8.0670    0.6350 C   0  0  0  0  0  0  0  0  0  0  0  0
   -0.3440    9.6870   -0.5140 C   0  0  0  0  0  0  0  0  0  0  0  0
    1.7580    9.4580    0.6370 C   0  0  0  0  0  0  0  0  0  0  0  0
    0.7820   10.2670    0.0640 C   0  0  0  0  0  0  0  0  0  0  0  0
   -2.1030    1.3610    0.4190 H   0  0  0  0  0  0  0  0  0  0  0  0
   -2.5330   -1.4310    0.4510 H   0  0  0  0  0  0  0  0  0  0  0  0
    2.3490   -1.6390   -0.4660 H   0  0  0  0  0  0  0  0  0  0  0  0
    1.0550   -3.6710   -0.2610 H   0  0  0  0  0  0  0  0  0  0  0  0
    2.2520    3.1780   -0.3600 H   0  0  0  0  0  0  0  0  0  0  0  0
   -1.9480    3.5490    0.4290 H   0  0  0  0  0  0  0  0  0  0  0  0
    2.4670    5.6380   -0.3590 H   0  0  0  0  0  0  0  0  0  0  0  0
   -1.7230    6.0100    0.4320 H   0  0  0  0  0  0  0  0  0  0  0  0
   -0.9010   -4.7920    0.0840 H   0  0  0  0  0  0  0  0  0  0  0  0
   -2.3760   -4.0100   -0.5320 H   0  0  0  0  0  0  0  0  0  0  0  0
   -2.0500   -4.0410    1.2180 H   0  0  0  0  0  0  0  0  0  0  0  0
   -1.3690    7.8570   -0.9710 H   0  0  0  0  0  0  0  0  0  0  0  0
    2.3770    7.4490    1.0780 H   0  0  0  0  0  0  0  0  0  0  0  0
   -1.1030   10.3120   -0.9620 H   0  0  0  0  0  0  0  0  0  0  0  0
    2.6330    9.9050    1.0850 H   0  0  0  0  0  0  0  0  0  0  0  0
    0.8970   11.3410    0.0680 H   0  0  0  0  0  0  0  0  0  0  0  0
  1  3  1  0  0  0  0
  1  5  1  0  0  0  0
  1  6  1  0  0  0  0
  2  3  2  0  0  0  0
  2  4  1  0  0  0  0
  3  7  1  0  0  0  0
  4  5  2  0  0  0  0
  4 10  1  0  0  0  0
  5 23  1  0  0  0  0
  6  8  2  0  0  0  0
  6 24  1  0  0  0  0
  7  9  2  0  0  0  0
  7 25  1  0  0  0  0
  8  9  1  0  0  0  0
  8 17  1  0  0  0  0
  9 26  1  0  0  0  0
 10 12  2  0  0  0  0
 10 13  1  0  0  0  0
 11 14  2  0  0  0  0
 11 15  1  0  0  0  0
 11 16  1  0  0  0  0
 12 14  1  0  0  0  0
 12 27  1  0  0  0  0
 13 15  2  0  0  0  0
 13 28  1  0  0  0  0
 14 29  1  0  0  0  0
 15 30  1  0  0  0  0
 16 18  2  0  0  0  0
 16 19  1  0  0  0  0
 17 31  1  0  0  0  0
 17 32  1  0  0  0  0
 17 33  1  0  0  0  0
 18 20  1  0  0  0  0
 18 34  1  0  0  0  0
 19 21  2  0  0  0  0
 19 35  1  0  0  0  0
 20 22  2  0  0  0  0
 20 36  1  0  0  0  0
 21 22  1  0  0  0  0
 21 37  1  0  0  0  0
 22 38  1  0  0  0  0
M  END
>  <$CLUSTER>
912

>  <INDEX>
496757

$$$$
Chem T&I NSB 0004264
  MOE2020           3D

 43 44  0  0  0  0  0  0  0  0999 V2000
   -0.7780   -0.1430   -2.2720 C   0  0  0  0  0  0  0  0  0  0  0  0
    0.1090    0.2820   -0.0900 N   0  0  0  0  0  0  0  0  0  0  0  0
    2.7090    2.2320    2.6950 C   0  0  0  0  0  0  0  0  0  0  0  0
   -1.7820   -1.0450   -2.9850 C   0  0  0  0  0  0  0  0  0  0  0  0
   -0.7480   -0.4540   -0.8460 N   0  0  0  0  0  0  0  0  0  0  0  0
    2.8230    1.6840    3.9740 C   0  0  0  0  0  0  0  0  0  0  0  0
    1.8730    1.6330    1.7490 C   0  0  0  0  0  0  0  0  0  0  0  0
   -0.1320    0.6890   -2.8490 O   0  0  0  0  0  0  0  0  0  0  0  0
   -1.5300   -1.2210   -4.3680 C   0  0  0  0  0  0  0  0  0  0  0  0
   -2.8880   -1.5990   -2.4030 C   0  0  0  0  0  0  0  0  0  0  0  0
    2.1010    0.5380    4.3100 C   0  0  0  0  0  0  0  0  0  0  0  0
    0.2540   -0.1830    1.1150 C   0  0  0  0  0  0  0  0  0  0  0  0
    1.1640    0.4980    2.0920 C   0  0  0  0  0  0  0  0  0  0  0  0
    1.2640   -0.0640    3.3680 C   0  0  0  0  0  0  0  0  0  0  0  0
    3.4620    3.3670    2.4570 O   0  0  0  0  0  0  0  0  0  0  0  0
   -3.7620   -2.3790   -3.1640 C   0  0  0  0  0  0  0  0  0  0  0  0
   -2.4070   -2.0020   -5.1240 C   0  0  0  0  0  0  0  0  0  0  0  0
   -3.5200   -2.5820   -4.5210 C   0  0  0  0  0  0  0  0  0  0  0  0
    3.6740    2.3450    4.8430 O   0  0  0  0  0  0  0  0  0  0  0  0
    3.8130    1.8130    6.1550 C   0  0  0  0  0  0  0  0  0  0  0  0
   -4.4530   -3.4220   -5.3310 C   0  0  0  0  0  0  0  0  0  0  0  0
    3.3710    3.9520    1.1640 C   0  0  0  0  0  0  0  0  0  0  0  0
    4.7510    2.6180    6.9730 C   0  0  0  0  0  0  0  0  0  0  0  0
   -1.3310   -1.1750   -0.4440 H   0  0  0  0  0  0  0  0  0  0  0  0
    1.7820    2.0540    0.7580 H   0  0  0  0  0  0  0  0  0  0  0  0
   -0.6720   -0.7580   -4.8310 H   0  0  0  0  0  0  0  0  0  0  0  0
   -3.0860   -1.4340   -1.3540 H   0  0  0  0  0  0  0  0  0  0  0  0
    2.1900    0.1160    5.3000 H   0  0  0  0  0  0  0  0  0  0  0  0
   -0.2860   -1.0690    1.4150 H   0  0  0  0  0  0  0  0  0  0  0  0
    0.7020   -0.9510    3.6220 H   0  0  0  0  0  0  0  0  0  0  0  0
   -4.6280   -2.8260   -2.6990 H   0  0  0  0  0  0  0  0  0  0  0  0
   -2.2220   -2.1560   -6.1770 H   0  0  0  0  0  0  0  0  0  0  0  0
    4.1900    0.7930    6.0850 H   0  0  0  0  0  0  0  0  0  0  0  0
    2.8370    1.8070    6.6400 H   0  0  0  0  0  0  0  0  0  0  0  0
   -5.2580   -3.7880   -4.6940 H   0  0  0  0  0  0  0  0  0  0  0  0
   -3.9090   -4.2680   -5.7510 H   0  0  0  0  0  0  0  0  0  0  0  0
   -4.8720   -2.8230   -6.1390 H   0  0  0  0  0  0  0  0  0  0  0  0
    4.0120    4.8330    1.1180 H   0  0  0  0  0  0  0  0  0  0  0  0
    2.3390    4.2430    0.9690 H   0  0  0  0  0  0  0  0  0  0  0  0
    3.6930    3.2290    0.4150 H   0  0  0  0  0  0  0  0  0  0  0  0
    5.7310    2.6300    6.4960 H   0  0  0  0  0  0  0  0  0  0  0  0
    4.8360    2.1780    7.9670 H   0  0  0  0  0  0  0  0  0  0  0  0
    4.3760    3.6380    7.0580 H   0  0  0  0  0  0  0  0  0  0  0  0
  1  4  1  0  0  0  0
  1  5  1  0  0  0  0
  1  8  2  0  0  0  0
  2  5  1  0  0  0  0
  2 12  2  0  0  0  0
  3  6  2  0  0  0  0
  3  7  1  0  0  0  0
  3 15  1  0  0  0  0
  4  9  1  0  0  0  0
  4 10  2  0  0  0  0
  5 24  1  0  0  0  0
  6 11  1  0  0  0  0
  6 19  1  0  0  0  0
  7 13  2  0  0  0  0
  7 25  1  0  0  0  0
  9 17  2  0  0  0  0
  9 26  1  0  0  0  0
 10 16  1  0  0  0  0
 10 27  1  0  0  0  0
 11 14  2  0  0  0  0
 11 28  1  0  0  0  0
 12 13  1  0  0  0  0
 12 29  1  0  0  0  0
 13 14  1  0  0  0  0
 14 30  1  0  0  0  0
 15 22  1  0  0  0  0
 16 18  2  0  0  0  0
 16 31  1  0  0  0  0
 17 18  1  0  0  0  0
 17 32  1  0  0  0  0
 18 21  1  0  0  0  0
 19 20  1  0  0  0  0
 20 23  1  0  0  0  0
 20 33  1  0  0  0  0
 20 34  1  0  0  0  0
 21 35  1  0  0  0  0
 21 36  1  0  0  0  0
 21 37  1  0  0  0  0
 22 38  1  0  0  0  0
 22 39  1  0  0  0  0
 22 40  1  0  0  0  0
 23 41  1  0  0  0  0
 23 42  1  0  0  0  0
 23 43  1  0  0  0  0
M  END
>  <$CLUSTER>
913

>  <INDEX>
567389

$$$$
Princeton Biomolecular OSSK_619721
  MOE2020           3D

 31 33  0  0  0  0  0  0  0  0999 V2000
    1.0540    2.8190   -4.2680 C   0  0  0  0  0  0  0  0  0  0  0  0
    1.1750    3.6890   -3.3060 N   0  0  0  0  0  0  0  0  0  0  0  0
    0.4630    3.2360   -5.4010 O   0  0  0  0  0  0  0  0  0  0  0  0
    0.1700    4.5370   -5.1260 C   0  0  0  0  0  0  0  0  0  0  0  0
    0.6040    4.8080   -3.8540 C   0  0  0  0  0  0  0  0  0  0  0  0
    1.0230   -0.1220   -0.8740 N   0  0  0  0  0  0  0  0  0  0  0  0
    1.1930    1.1090   -1.4930 C   0  0  0  0  0  0  0  0  0  0  0  0
   -0.4600    5.4600   -5.9700 C   0  0  0  0  0  0  0  0  0  0  0  0
    1.6230    1.1090   -4.1740 S   0  0  0  0  0  0  0  0  0  0  0  0
    0.0470   -0.3920    0.1120 C   0  0  0  0  0  0  0  0  0  0  0  0
   -0.8100    0.5740    0.5230 N   0  0  0  0  0  0  0  0  0  0  0  0
    0.5490    2.1340   -1.2920 O   0  0  0  0  0  0  0  0  0  0  0  0
    0.4160    6.1050   -3.3270 C   0  0  0  0  0  0  0  0  0  0  0  0
   -0.6400    6.7410   -5.4360 C   0  0  0  0  0  0  0  0  0  0  0  0
    2.3180    1.0740   -2.4950 C   0  0  0  0  0  0  0  0  0  0  0  0
   -0.2120    7.0600   -4.1410 C   0  0  0  0  0  0  0  0  0  0  0  0
   -1.4020    7.9380   -6.3930 Cl  0  0  0  0  0  0  0  0  0  0  0  0
   -1.7180    0.2430    1.4690 C   0  0  0  0  0  0  0  0  0  0  0  0
    0.0120   -1.6840    0.6310 C   0  0  0  0  0  0  0  0  0  0  0  0
   -1.8210   -1.0140    2.0370 C   0  0  0  0  0  0  0  0  0  0  0  0
   -0.9350   -1.9910    1.6040 C   0  0  0  0  0  0  0  0  0  0  0  0
    1.6380   -0.8750   -1.1470 H   0  0  0  0  0  0  0  0  0  0  0  0
   -0.7850    5.2010   -6.9670 H   0  0  0  0  0  0  0  0  0  0  0  0
    0.7450    6.3540   -2.3290 H   0  0  0  0  0  0  0  0  0  0  0  0
    2.8990    0.1620   -2.3600 H   0  0  0  0  0  0  0  0  0  0  0  0
    2.9630    1.9400   -2.3490 H   0  0  0  0  0  0  0  0  0  0  0  0
   -0.3680    8.0590   -3.7620 H   0  0  0  0  0  0  0  0  0  0  0  0
   -2.4050    1.0070    1.8010 H   0  0  0  0  0  0  0  0  0  0  0  0
    0.7070   -2.4340    0.2850 H   0  0  0  0  0  0  0  0  0  0  0  0
   -2.5640   -1.2280    2.7910 H   0  0  0  0  0  0  0  0  0  0  0  0
   -0.9800   -2.9860    2.0210 H   0  0  0  0  0  0  0  0  0  0  0  0
  1  2  2  0  0  0  0
  1  3  1  0  0  0  0
  1  9  1  0  0  0  0
  2  5  1  0  0  0  0
  3  4  1  0  0  0  0
  4  5  2  0  0  0  0
  4  8  1  0  0  0  0
  5 13  1  0  0  0  0
  6  7  1  0  0  0  0
  6 10  1  0  0  0  0
  6 22  1  0  0  0  0
  7 12  2  0  0  0  0
  7 15  1  0  0  0  0
  8 14  2  0  0  0  0
  8 23  1  0  0  0  0
  9 15  1  0  0  0  0
 10 11  2  0  0  0  0
 10 19  1  0  0  0  0
 11 18  1  0  0  0  0
 13 16  2  0  0  0  0
 13 24  1  0  0  0  0
 14 16  1  0  0  0  0
 14 17  1  0  0  0  0
 15 25  1  0  0  0  0
 15 26  1  0  0  0  0
 16 27  1  0  0  0  0
 18 20  2  0  0  0  0
 18 28  1  0  0  0  0
 19 21  2  0  0  0  0
 19 29  1  0  0  0  0
 20 21  1  0  0  0  0
 20 30  1  0  0  0  0
 21 31  1  0  0  0  0
M  END
>  <$CLUSTER>
914

>  <INDEX>
591031

$$$$
InterBioScreen STOCK4S-40156
  MOE2020           3D

 33 34  0  0  0  0  0  0  0  0999 V2000
    1.1320   -1.3670   -0.4970 N   0  0  0  0  0  0  0  0  0  0  0  0
    2.3210   -0.7810   -0.2000 C   0  0  0  0  0  0  0  0  0  0  0  0
    2.4450    0.4960    0.3230 C   0  0  0  0  0  0  0  0  0  0  0  0
    0.0340    0.6590    0.2690 C   0  0  0  0  0  0  0  0  0  0  0  0
    0.0020   -0.6530   -0.2650 C   0  0  0  0  0  0  0  0  0  0  0  0
    1.2830    1.2250    0.5600 C   0  0  0  0  0  0  0  0  0  0  0  0
   -1.1580    1.3640    0.4950 C   0  0  0  0  0  0  0  0  0  0  0  0
   -1.2420   -1.2110   -0.5530 C   0  0  0  0  0  0  0  0  0  0  0  0
    3.4260   -1.5290   -0.4650 O   0  0  0  0  0  0  0  0  0  0  0  0
   -2.3870    0.7780    0.1960 C   0  0  0  0  0  0  0  0  0  0  0  0
    3.7890    1.1060    0.6190 C   0  0  0  0  0  0  0  0  0  0  0  0
    4.4900    1.5870   -0.5990 N   0  3  0  0  0  0  0  0  0  0  0  0
   -2.4290   -0.5100   -0.3280 C   0  0  0  0  0  0  0  0  0  0  0  0
    5.8110    2.1960   -0.3830 C   0  0  0  0  0  0  0  0  0  0  0  0
   -3.6520    1.5340    0.4380 C   0  0  0  0  0  0  0  0  0  0  0  0
    6.3940    2.6350   -1.7200 C   0  0  0  0  0  0  0  0  0  0  0  0
    1.3440    2.2240    0.9670 H   0  0  0  0  0  0  0  0  0  0  0  0
   -1.1230    2.3640    0.9020 H   0  0  0  0  0  0  0  0  0  0  0  0
   -1.2900   -2.2100   -0.9600 H   0  0  0  0  0  0  0  0  0  0  0  0
    4.2620   -1.1030   -0.2630 H   0  0  0  0  0  0  0  0  0  0  0  0
    4.4120    0.3550    1.1040 H   0  0  0  0  0  0  0  0  0  0  0  0
    3.6460    1.9500    1.2940 H   0  0  0  0  0  0  0  0  0  0  0  0
    3.9010    2.2760   -1.0430 H   0  0  0  0  0  0  0  0  0  0  0  0
    4.6110    0.7980   -1.2180 H   0  0  0  0  0  0  0  0  0  0  0  0
   -3.3790   -0.9680   -0.5610 H   0  0  0  0  0  0  0  0  0  0  0  0
    6.4750    1.4670    0.0810 H   0  0  0  0  0  0  0  0  0  0  0  0
    5.7090    3.0620    0.2710 H   0  0  0  0  0  0  0  0  0  0  0  0
   -3.4160    2.5160    0.8480 H   0  0  0  0  0  0  0  0  0  0  0  0
   -4.2740    0.9850    1.1450 H   0  0  0  0  0  0  0  0  0  0  0  0
   -4.1900    1.6530   -0.5030 H   0  0  0  0  0  0  0  0  0  0  0  0
    6.4960    1.7690   -2.3740 H   0  0  0  0  0  0  0  0  0  0  0  0
    7.3730    3.0860   -1.5590 H   0  0  0  0  0  0  0  0  0  0  0  0
    5.7300    3.3640   -2.1840 H   0  0  0  0  0  0  0  0  0  0  0  0
  1  2  2  0  0  0  0
  1  5  1  0  0  0  0
  2  3  1  0  0  0  0
  2  9  1  0  0  0  0
  3  6  2  0  0  0  0
  3 11  1  0  0  0  0
  4  5  2  0  0  0  0
  4  6  1  0  0  0  0
  4  7  1  0  0  0  0
  5  8  1  0  0  0  0
  6 17  1  0  0  0  0
  7 10  2  0  0  0  0
  7 18  1  0  0  0  0
  8 13  2  0  0  0  0
  8 19  1  0  0  0  0
  9 20  1  0  0  0  0
 10 13  1  0  0  0  0
 10 15  1  0  0  0  0
 11 12  1  0  0  0  0
 11 21  1  0  0  0  0
 11 22  1  0  0  0  0
 12 14  1  0  0  0  0
 12 23  1  0  0  0  0
 12 24  1  0  0  0  0
 13 25  1  0  0  0  0
 14 16  1  0  0  0  0
 14 26  1  0  0  0  0
 14 27  1  0  0  0  0
 15 28  1  0  0  0  0
 15 29  1  0  0  0  0
 15 30  1  0  0  0  0
 16 31  1  0  0  0  0
 16 32  1  0  0  0  0
 16 33  1  0  0  0  0
M  CHG  1  12   1
M  END
>  <$CLUSTER>
915

>  <INDEX>
354913

$$$$
Pharmeks PHAR013973
  MOE2020           3D

 58 60  0  0  1  0  0  0  0  0999 V2000
    1.0840   -0.9280    0.0350 C   0  0  0  0  0  0  0  0  0  0  0  0
   -0.0740    0.2820   -1.6100 N   0  0  0  0  0  0  0  0  0  0  0  0
    2.0330   -0.2230   -0.8400 C   0  0  0  0  0  0  0  0  0  0  0  0
   -0.3130   -0.5020   -0.3940 C   0  0  3  0  0  0  0  0  0  0  0  0
    1.2580    0.4930   -1.8910 C   0  0  0  0  0  0  0  0  0  0  0  0
    1.3880   -1.8050    0.9990 C   0  0  0  0  0  0  0  0  0  0  0  0
    2.7560   -2.2630    1.4100 C   0  0  0  0  0  0  0  0  0  0  0  0
   -1.0590    0.2840    0.6670 C   0  0  0  0  0  0  0  0  0  0  0  0
    3.8370   -1.7360    0.7540 O   0  0  0  0  0  0  0  0  0  0  0  0
    3.1160   -3.1230    2.3450 C   0  0  0  0  0  0  0  0  0  0  0  0
   -0.5690    1.5010    1.1680 C   0  0  0  0  0  0  0  0  0  0  0  0
    4.9170   -2.3160    1.3290 C   0  0  0  0  0  0  0  0  0  0  0  0
    4.5290   -3.1810    2.3170 C   0  0  0  0  0  0  0  0  0  0  0  0
   -1.2760    2.2050    2.1440 C   0  0  0  0  0  0  0  0  0  0  0  0
    1.8070    1.1000   -2.7920 O   0  0  0  0  0  0  0  0  0  0  0  0
    3.2500   -0.1630   -0.7890 O   0  0  0  0  0  0  0  0  0  0  0  0
   -2.2740   -0.2080    1.1680 C   0  0  0  0  0  0  0  0  0  0  0  0
   -2.4810    1.7030    2.6320 C   0  0  0  0  0  0  0  0  0  0  0  0
   -1.1620    0.7650   -2.4540 C   0  0  0  0  0  0  0  0  0  0  0  0
   -2.9790    0.4970    2.1450 C   0  0  0  0  0  0  0  0  0  0  0  0
    0.3560   -2.3960    1.7160 O   0  0  0  0  0  0  0  0  0  0  0  0
   -0.8560    3.4060    2.6820 O   0  0  0  0  0  0  0  0  0  0  0  0
   -3.1080    2.4660    3.5940 O   0  0  0  0  0  0  0  0  0  0  0  0
   -1.7470   -0.3420   -3.3140 C   0  0  0  0  0  0  0  0  0  0  0  0
   -3.3770   -0.9330   -4.9590 O   0  0  0  0  0  0  0  0  0  0  0  0
    6.2280   -2.0070    0.8980 C   0  0  0  0  0  0  0  0  0  0  0  0
   -2.8800    0.1510   -4.1840 C   0  0  0  0  0  0  0  0  0  0  0  0
   -4.3400    1.9820    4.1140 C   0  0  0  0  0  0  0  0  0  0  0  0
    0.3710    3.9480    2.2070 C   0  0  0  0  0  0  0  0  0  0  0  0
   -4.4470   -0.5380   -5.8020 C   0  0  0  0  0  0  0  0  0  0  0  0
   -4.9000    2.9010    5.1360 C   0  0  0  0  0  0  0  0  0  0  0  0
   -0.9660   -1.3590   -0.5630 H   0  0  0  0  0  0  0  0  0  0  0  0
    2.4600   -3.6740    3.0020 H   0  0  0  0  0  0  0  0  0  0  0  0
    0.3640    1.8960    0.7940 H   0  0  0  0  0  0  0  0  0  0  0  0
    5.1690   -3.7830    2.9450 H   0  0  0  0  0  0  0  0  0  0  0  0
   -2.6680   -1.1420    0.7940 H   0  0  0  0  0  0  0  0  0  0  0  0
   -1.9490    1.1690   -1.8170 H   0  0  0  0  0  0  0  0  0  0  0  0
   -0.7800    1.5520   -3.1040 H   0  0  0  0  0  0  0  0  0  0  0  0
   -3.9120    0.1070    2.5240 H   0  0  0  0  0  0  0  0  0  0  0  0
   -0.5270   -2.1220    1.4570 H   0  0  0  0  0  0  0  0  0  0  0  0
   -2.1220   -1.1320   -2.6630 H   0  0  0  0  0  0  0  0  0  0  0  0
   -0.9610   -0.7420   -3.9540 H   0  0  0  0  0  0  0  0  0  0  0  0
    6.9470   -2.5770    1.4860 H   0  0  0  0  0  0  0  0  0  0  0  0
    6.4130   -0.9410    1.0320 H   0  0  0  0  0  0  0  0  0  0  0  0
    6.3340   -2.2650   -0.1560 H   0  0  0  0  0  0  0  0  0  0  0  0
   -2.5160    0.9370   -4.8460 H   0  0  0  0  0  0  0  0  0  0  0  0
   -3.6780    0.5460   -3.5550 H   0  0  0  0  0  0  0  0  0  0  0  0
   -5.0550    1.8840    3.2970 H   0  0  0  0  0  0  0  0  0  0  0  0
   -4.1730    1.0060    4.5700 H   0  0  0  0  0  0  0  0  0  0  0  0
    0.5740    4.8900    2.7170 H   0  0  0  0  0  0  0  0  0  0  0  0
    0.2990    4.1240    1.1340 H   0  0  0  0  0  0  0  0  0  0  0  0
    1.1800    3.2450    2.4070 H   0  0  0  0  0  0  0  0  0  0  0  0
   -4.7950   -1.3980   -6.3750 H   0  0  0  0  0  0  0  0  0  0  0  0
   -4.1040    0.2390   -6.4850 H   0  0  0  0  0  0  0  0  0  0  0  0
   -5.2650   -0.1520   -5.1940 H   0  0  0  0  0  0  0  0  0  0  0  0
   -5.0710    3.8800    4.6890 H   0  0  0  0  0  0  0  0  0  0  0  0
   -4.1970    2.9970    5.9630 H   0  0  0  0  0  0  0  0  0  0  0  0
   -5.8440    2.5010    5.5060 H   0  0  0  0  0  0  0  0  0  0  0  0
  1  3  1  0  0  0  0
  1  4  1  0  0  0  0
  1  6  2  0  0  0  0
  2  4  1  0  0  0  0
  2  5  1  0  0  0  0
  2 19  1  0  0  0  0
  3  5  1  0  0  0  0
  3 16  2  0  0  0  0
  4  8  1  0  0  0  0
  4 32  1  0  0  0  0
  5 15  2  0  0  0  0
  6  7  1  0  0  0  0
  6 21  1  0  0  0  0
  7  9  1  0  0  0  0
  7 10  2  0  0  0  0
  8 11  1  0  0  0  0
  8 17  2  0  0  0  0
  9 12  1  0  0  0  0
 10 13  1  0  0  0  0
 10 33  1  0  0  0  0
 11 14  2  0  0  0  0
 11 34  1  0  0  0  0
 12 13  2  0  0  0  0
 12 26  1  0  0  0  0
 13 35  1  0  0  0  0
 14 18  1  0  0  0  0
 14 22  1  0  0  0  0
 17 20  1  0  0  0  0
 17 36  1  0  0  0  0
 18 20  2  0  0  0  0
 18 23  1  0  0  0  0
 19 24  1  0  0  0  0
 19 37  1  0  0  0  0
 19 38  1  0  0  0  0
 20 39  1  0  0  0  0
 21 40  1  0  0  0  0
 22 29  1  0  0  0  0
 23 28  1  0  0  0  0
 24 27  1  0  0  0  0
 24 41  1  0  0  0  0
 24 42  1  0  0  0  0
 25 27  1  0  0  0  0
 25 30  1  0  0  0  0
 26 43  1  0  0  0  0
 26 44  1  0  0  0  0
 26 45  1  0  0  0  0
 27 46  1  0  0  0  0
 27 47  1  0  0  0  0
 28 31  1  0  0  0  0
 28 48  1  0  0  0  0
 28 49  1  0  0  0  0
 29 50  1  0  0  0  0
 29 51  1  0  0  0  0
 29 52  1  0  0  0  0
 30 53  1  0  0  0  0
 30 54  1  0  0  0  0
 30 55  1  0  0  0  0
 31 56  1  0  0  0  0
 31 57  1  0  0  0  0
 31 58  1  0  0  0  0
M  END
>  <$CLUSTER>
916

>  <INDEX>
593609

$$$$
Pharmeks PHAR108866
  MOE2020           3D

 41 42  0  0  0  0  0  0  0  0999 V2000
    0.1080    0.2900    0.0010 C   0  0  0  0  0  0  0  0  0  0  0  0
   -1.5620   -1.3770   -0.5520 N   0  0  0  0  0  0  0  0  0  0  0  0
    0.3530   -2.0410    0.6960 N   0  0  0  0  0  0  0  0  0  0  0  0
   -1.2810   -0.0320   -0.4550 C   0  0  0  0  0  0  0  0  0  0  0  0
    0.7850   -0.8260    0.6890 C   0  0  0  0  0  0  0  0  0  0  0  0
   -0.7970   -2.2710   -0.0110 C   0  0  0  0  0  0  0  0  0  0  0  0
    0.6770    1.4960   -0.2200 C   0  0  0  0  0  0  0  0  0  0  0  0
    1.9390    1.8570    0.1860 N   0  0  0  0  0  0  0  0  0  0  0  0
   -2.1160    0.8300   -0.7030 O   0  0  0  0  0  0  0  0  0  0  0  0
    4.7290    4.9640   -0.3600 C   0  0  0  0  0  0  0  0  0  0  0  0
    1.9090   -0.5200    1.3700 O   0  0  0  0  0  0  0  0  0  0  0  0
   -1.1110   -3.5720   -0.1220 O   0  0  0  0  0  0  0  0  0  0  0  0
    2.8820    2.8510   -0.0260 C   0  0  0  0  0  0  0  0  0  0  0  0
    3.8050    4.6720   -1.3590 C   0  0  0  0  0  0  0  0  0  0  0  0
    4.7400    4.2090    0.8070 C   0  0  0  0  0  0  0  0  0  0  0  0
   -0.0160    2.5950   -1.0000 C   0  0  0  0  0  0  0  0  0  0  0  0
    5.7360    6.1010   -0.5220 C   0  0  0  0  0  0  0  0  0  0  0  0
    2.8890    3.6270   -1.1910 C   0  0  0  0  0  0  0  0  0  0  0  0
    3.8260    3.1650    0.9710 C   0  0  0  0  0  0  0  0  0  0  0  0
    5.0380    7.4570   -0.6520 C   0  0  0  0  0  0  0  0  0  0  0  0
    6.6780    5.8560   -1.7030 C   0  0  0  0  0  0  0  0  0  0  0  0
    0.5110    2.7820   -2.4050 C   0  0  0  0  0  0  0  0  0  0  0  0
    2.2920    1.1840    0.8510 H   0  0  0  0  0  0  0  0  0  0  0  0
    2.3200   -1.2570    1.8270 H   0  0  0  0  0  0  0  0  0  0  0  0
   -1.9140   -3.7550   -0.6150 H   0  0  0  0  0  0  0  0  0  0  0  0
    3.7950    5.2550   -2.2680 H   0  0  0  0  0  0  0  0  0  0  0  0
    5.4540    4.4290    1.5860 H   0  0  0  0  0  0  0  0  0  0  0  0
   -1.0770    2.3540   -1.0620 H   0  0  0  0  0  0  0  0  0  0  0  0
    0.1130    3.5320   -0.4590 H   0  0  0  0  0  0  0  0  0  0  0  0
    6.3400    6.1230    0.3850 H   0  0  0  0  0  0  0  0  0  0  0  0
    2.1750    3.4160   -1.9740 H   0  0  0  0  0  0  0  0  0  0  0  0
    3.8440    2.5860    1.8820 H   0  0  0  0  0  0  0  0  0  0  0  0
    4.4250    7.4650   -1.5530 H   0  0  0  0  0  0  0  0  0  0  0  0
    5.7870    8.2470   -0.7150 H   0  0  0  0  0  0  0  0  0  0  0  0
    4.4060    7.6250    0.2200 H   0  0  0  0  0  0  0  0  0  0  0  0
    6.1020    5.8280   -2.6280 H   0  0  0  0  0  0  0  0  0  0  0  0
    7.1920    4.9050   -1.5660 H   0  0  0  0  0  0  0  0  0  0  0  0
    7.4110    6.6610   -1.7560 H   0  0  0  0  0  0  0  0  0  0  0  0
    0.3910    1.8540   -2.9640 H   0  0  0  0  0  0  0  0  0  0  0  0
    1.5670    3.0480   -2.3640 H   0  0  0  0  0  0  0  0  0  0  0  0
   -0.0460    3.5780   -2.8990 H   0  0  0  0  0  0  0  0  0  0  0  0
  1  4  1  0  0  0  0
  1  5  1  0  0  0  0
  1  7  2  0  0  0  0
  2  4  1  0  0  0  0
  2  6  2  0  0  0  0
  3  5  2  0  0  0  0
  3  6  1  0  0  0  0
  4  9  2  0  0  0  0
  5 11  1  0  0  0  0
  6 12  1  0  0  0  0
  7  8  1  0  0  0  0
  7 16  1  0  0  0  0
  8 13  1  0  0  0  0
  8 23  1  0  0  0  0
 10 14  2  0  0  0  0
 10 15  1  0  0  0  0
 10 17  1  0  0  0  0
 11 24  1  0  0  0  0
 12 25  1  0  0  0  0
 13 18  2  0  0  0  0
 13 19  1  0  0  0  0
 14 18  1  0  0  0  0
 14 26  1  0  0  0  0
 15 19  2  0  0  0  0
 15 27  1  0  0  0  0
 16 22  1  0  0  0  0
 16 28  1  0  0  0  0
 16 29  1  0  0  0  0
 17 20  1  0  0  0  0
 17 21  1  0  0  0  0
 17 30  1  0  0  0  0
 18 31  1  0  0  0  0
 19 32  1  0  0  0  0
 20 33  1  0  0  0  0
 20 34  1  0  0  0  0
 20 35  1  0  0  0  0
 21 36  1  0  0  0  0
 21 37  1  0  0  0  0
 21 38  1  0  0  0  0
 22 39  1  0  0  0  0
 22 40  1  0  0  0  0
 22 41  1  0  0  0  0
M  END
>  <$CLUSTER>
917

>  <INDEX>
609026

$$$$
Pharmeks PHAR110701
  MOE2020           3D

 40 42  0  0  0  0  0  0  0  0999 V2000
    1.2140    2.7190   -4.4160 C   0  0  0  0  0  0  0  0  0  0  0  0
    1.3300    3.6450   -3.5210 N   0  0  0  0  0  0  0  0  0  0  0  0
    0.6620    3.1020   -5.5700 N   0  0  0  0  0  0  0  0  0  0  0  0
    0.3800    4.4320   -5.4240 C   0  0  0  0  0  0  0  0  0  0  0  0
    0.8020    4.7440   -4.1520 C   0  0  0  0  0  0  0  0  0  0  0  0
    1.2470    1.1300   -1.5640 C   0  0  0  0  0  0  0  0  0  0  0  0
    1.7230    0.9960   -4.2390 S   0  0  0  0  0  0  0  0  0  0  0  0
    1.0290   -0.0710   -0.9020 N   0  0  0  0  0  0  0  0  0  0  0  0
   -0.2050    5.3750   -6.2990 C   0  0  0  0  0  0  0  0  0  0  0  0
    0.6410    2.1880   -1.4280 O   0  0  0  0  0  0  0  0  0  0  0  0
    0.6500    6.0730   -3.6770 C   0  0  0  0  0  0  0  0  0  0  0  0
    2.3850    1.0120   -2.5460 C   0  0  0  0  0  0  0  0  0  0  0  0
    0.0540   -0.3460    0.0860 C   0  0  0  0  0  0  0  0  0  0  0  0
   -0.3470    6.6800   -5.8140 C   0  0  0  0  0  0  0  0  0  0  0  0
   -1.8160   -1.0700    2.0540 C   0  0  0  0  0  0  0  0  0  0  0  0
    0.0720    7.0250   -4.5270 C   0  0  0  0  0  0  0  0  0  0  0  0
   -0.8730    0.5880    0.5590 C   0  0  0  0  0  0  0  0  0  0  0  0
    0.0320   -1.6470    0.6110 C   0  0  0  0  0  0  0  0  0  0  0  0
   -0.8970   -2.0070    1.5900 C   0  0  0  0  0  0  0  0  0  0  0  0
   -1.8030    0.2240    1.5400 C   0  0  0  0  0  0  0  0  0  0  0  0
   -2.6780   -1.5390    3.0150 O   0  0  0  0  0  0  0  0  0  0  0  0
   -0.9620    7.7240   -6.7000 C   0  0  0  0  0  0  0  0  0  0  0  0
   -3.6380   -0.6210    3.5250 C   0  0  0  0  0  0  0  0  0  0  0  0
    0.4890    2.5280   -6.3830 H   0  0  0  0  0  0  0  0  0  0  0  0
    1.6370   -0.8370   -1.1550 H   0  0  0  0  0  0  0  0  0  0  0  0
   -0.5270    5.1020   -7.2930 H   0  0  0  0  0  0  0  0  0  0  0  0
    0.9730    6.3440   -2.6830 H   0  0  0  0  0  0  0  0  0  0  0  0
    2.9310    0.0870   -2.3600 H   0  0  0  0  0  0  0  0  0  0  0  0
    3.0580    1.8610   -2.4270 H   0  0  0  0  0  0  0  0  0  0  0  0
   -0.0510    8.0410   -4.1820 H   0  0  0  0  0  0  0  0  0  0  0  0
   -0.8710    1.5940    0.1660 H   0  0  0  0  0  0  0  0  0  0  0  0
    0.7420   -2.3790    0.2540 H   0  0  0  0  0  0  0  0  0  0  0  0
   -0.9020   -3.0120    1.9870 H   0  0  0  0  0  0  0  0  0  0  0  0
   -2.5150    0.9520    1.9010 H   0  0  0  0  0  0  0  0  0  0  0  0
   -1.2260    7.2770   -7.6590 H   0  0  0  0  0  0  0  0  0  0  0  0
   -0.2480    8.5320   -6.8600 H   0  0  0  0  0  0  0  0  0  0  0  0
   -1.8590    8.1210   -6.2250 H   0  0  0  0  0  0  0  0  0  0  0  0
   -4.2540   -1.1180    4.2750 H   0  0  0  0  0  0  0  0  0  0  0  0
   -4.2710   -0.2680    2.7110 H   0  0  0  0  0  0  0  0  0  0  0  0
   -3.1250    0.2260    3.9800 H   0  0  0  0  0  0  0  0  0  0  0  0
  1  2  2  0  0  0  0
  1  3  1  0  0  0  0
  1  7  1  0  0  0  0
  2  5  1  0  0  0  0
  3  4  1  0  0  0  0
  3 24  1  0  0  0  0
  4  5  2  0  0  0  0
  4  9  1  0  0  0  0
  5 11  1  0  0  0  0
  6  8  1  0  0  0  0
  6 10  2  0  0  0  0
  6 12  1  0  0  0  0
  7 12  1  0  0  0  0
  8 13  1  0  0  0  0
  8 25  1  0  0  0  0
  9 14  2  0  0  0  0
  9 26  1  0  0  0  0
 11 16  2  0  0  0  0
 11 27  1  0  0  0  0
 12 28  1  0  0  0  0
 12 29  1  0  0  0  0
 13 17  1  0  0  0  0
 13 18  2  0  0  0  0
 14 16  1  0  0  0  0
 14 22  1  0  0  0  0
 15 19  2  0  0  0  0
 15 20  1  0  0  0  0
 15 21  1  0  0  0  0
 16 30  1  0  0  0  0
 17 20  2  0  0  0  0
 17 31  1  0  0  0  0
 18 19  1  0  0  0  0
 18 32  1  0  0  0  0
 19 33  1  0  0  0  0
 20 34  1  0  0  0  0
 21 23  1  0  0  0  0
 22 35  1  0  0  0  0
 22 36  1  0  0  0  0
 22 37  1  0  0  0  0
 23 38  1  0  0  0  0
 23 39  1  0  0  0  0
 23 40  1  0  0  0  0
M  END
>  <$CLUSTER>
918

>  <INDEX>
609452

$$$$
Pharmeks PHAR031304
  MOE2020           3D

 50 52  0  0  1  0  0  0  0  0999 V2000
    1.0840   -0.9280    0.0350 C   0  0  0  0  0  0  0  0  0  0  0  0
   -0.0740    0.2820   -1.6100 N   0  0  0  0  0  0  0  0  0  0  0  0
    2.0330   -0.2230   -0.8400 C   0  0  0  0  0  0  0  0  0  0  0  0
   -0.3130   -0.5020   -0.3940 C   0  0  3  0  0  0  0  0  0  0  0  0
    1.2580    0.4930   -1.8910 C   0  0  0  0  0  0  0  0  0  0  0  0
    1.3880   -1.8050    0.9990 C   0  0  0  0  0  0  0  0  0  0  0  0
   -1.0590    0.2840    0.6670 C   0  0  0  0  0  0  0  0  0  0  0  0
   -0.5690    1.5010    1.1680 C   0  0  0  0  0  0  0  0  0  0  0  0
   -1.2760    2.2050    2.1440 C   0  0  0  0  0  0  0  0  0  0  0  0
    2.7560   -2.2630    1.4100 C   0  0  0  0  0  0  0  0  0  0  0  0
    1.8070    1.1000   -2.7920 O   0  0  0  0  0  0  0  0  0  0  0  0
    3.2500   -0.1630   -0.7890 O   0  0  0  0  0  0  0  0  0  0  0  0
   -2.4810    1.7030    2.6320 C   0  0  0  0  0  0  0  0  0  0  0  0
   -2.2740   -0.2080    1.1680 C   0  0  0  0  0  0  0  0  0  0  0  0
   -1.1620    0.7650   -2.4540 C   0  0  0  0  0  0  0  0  0  0  0  0
   -2.9790    0.4970    2.1450 C   0  0  0  0  0  0  0  0  0  0  0  0
    3.8020   -1.3320    1.4280 C   0  0  0  0  0  0  0  0  0  0  0  0
    2.9770   -3.5770    1.7370 C   0  0  0  0  0  0  0  0  0  0  0  0
    0.3560   -2.3960    1.7160 O   0  0  0  0  0  0  0  0  0  0  0  0
   -0.6570    3.6790    2.7330 Cl  0  0  0  0  0  0  0  0  0  0  0  0
   -3.3490    2.5560    3.8240 Cl  0  0  0  0  0  0  0  0  0  0  0  0
    5.0820   -1.7530    1.8000 C   0  0  0  0  0  0  0  0  0  0  0  0
    4.2580   -3.9960    2.1080 C   0  0  0  0  0  0  0  0  0  0  0  0
    5.3100   -3.0850    2.1380 C   0  0  0  0  0  0  0  0  0  0  0  0
   -1.7470   -0.3420   -3.3140 C   0  0  0  0  0  0  0  0  0  0  0  0
   -3.3770   -0.9330   -4.9590 O   0  0  0  0  0  0  0  0  0  0  0  0
   -2.8800    0.1510   -4.1840 C   0  0  0  0  0  0  0  0  0  0  0  0
    6.6760   -3.5390    2.5320 C   0  0  0  0  0  0  0  0  0  0  0  0
   -4.4470   -0.5380   -5.8020 C   0  0  0  0  0  0  0  0  0  0  0  0
   -0.9660   -1.3590   -0.5630 H   0  0  0  0  0  0  0  0  0  0  0  0
    0.3640    1.8960    0.7940 H   0  0  0  0  0  0  0  0  0  0  0  0
   -2.6680   -1.1420    0.7940 H   0  0  0  0  0  0  0  0  0  0  0  0
   -1.9490    1.1690   -1.8170 H   0  0  0  0  0  0  0  0  0  0  0  0
   -0.7800    1.5520   -3.1040 H   0  0  0  0  0  0  0  0  0  0  0  0
   -3.9120    0.1070    2.5240 H   0  0  0  0  0  0  0  0  0  0  0  0
    3.6220   -0.3020    1.1580 H   0  0  0  0  0  0  0  0  0  0  0  0
    2.1630   -4.2860    1.7080 H   0  0  0  0  0  0  0  0  0  0  0  0
   -0.5270   -2.1220    1.4570 H   0  0  0  0  0  0  0  0  0  0  0  0
    5.8960   -1.0440    1.8250 H   0  0  0  0  0  0  0  0  0  0  0  0
    4.4320   -5.0290    2.3720 H   0  0  0  0  0  0  0  0  0  0  0  0
   -2.1220   -1.1320   -2.6630 H   0  0  0  0  0  0  0  0  0  0  0  0
   -0.9610   -0.7420   -3.9540 H   0  0  0  0  0  0  0  0  0  0  0  0
   -2.5160    0.9370   -4.8460 H   0  0  0  0  0  0  0  0  0  0  0  0
   -3.6780    0.5460   -3.5550 H   0  0  0  0  0  0  0  0  0  0  0  0
    7.3640   -2.6940    2.4980 H   0  0  0  0  0  0  0  0  0  0  0  0
    7.0150   -4.3120    1.8420 H   0  0  0  0  0  0  0  0  0  0  0  0
    6.6470   -3.9430    3.5440 H   0  0  0  0  0  0  0  0  0  0  0  0
   -4.7950   -1.3980   -6.3750 H   0  0  0  0  0  0  0  0  0  0  0  0
   -4.1040    0.2390   -6.4850 H   0  0  0  0  0  0  0  0  0  0  0  0
   -5.2650   -0.1520   -5.1940 H   0  0  0  0  0  0  0  0  0  0  0  0
  1  3  1  0  0  0  0
  1  4  1  0  0  0  0
  1  6  2  0  0  0  0
  2  4  1  0  0  0  0
  2  5  1  0  0  0  0
  2 15  1  0  0  0  0
  3  5  1  0  0  0  0
  3 12  2  0  0  0  0
  4  7  1  0  0  0  0
  4 30  1  0  0  0  0
  5 11  2  0  0  0  0
  6 10  1  0  0  0  0
  6 19  1  0  0  0  0
  7  8  1  0  0  0  0
  7 14  2  0  0  0  0
  8  9  2  0  0  0  0
  8 31  1  0  0  0  0
  9 13  1  0  0  0  0
  9 20  1  0  0  0  0
 10 17  1  0  0  0  0
 10 18  2  0  0  0  0
 13 16  2  0  0  0  0
 13 21  1  0  0  0  0
 14 16  1  0  0  0  0
 14 32  1  0  0  0  0
 15 25  1  0  0  0  0
 15 33  1  0  0  0  0
 15 34  1  0  0  0  0
 16 35  1  0  0  0  0
 17 22  2  0  0  0  0
 17 36  1  0  0  0  0
 18 23  1  0  0  0  0
 18 37  1  0  0  0  0
 19 38  1  0  0  0  0
 22 24  1  0  0  0  0
 22 39  1  0  0  0  0
 23 24  2  0  0  0  0
 23 40  1  0  0  0  0
 24 28  1  0  0  0  0
 25 27  1  0  0  0  0
 25 41  1  0  0  0  0
 25 42  1  0  0  0  0
 26 27  1  0  0  0  0
 26 29  1  0  0  0  0
 27 43  1  0  0  0  0
 27 44  1  0  0  0  0
 28 45  1  0  0  0  0
 28 46  1  0  0  0  0
 28 47  1  0  0  0  0
 29 48  1  0  0  0  0
 29 49  1  0  0  0  0
 29 50  1  0  0  0  0
M  END
>  <$CLUSTER>
919

>  <INDEX>
596057

$$$$
Pharmeks PHAR021952
  MOE2020           3D

 61 63  0  0  1  0  0  0  0  0999 V2000
    1.0480   -0.9710   -0.0650 C   0  0  0  0  0  0  0  0  0  0  0  0
   -0.0710    0.2640    1.5850 N   0  0  0  0  0  0  0  0  0  0  0  0
    2.0200   -0.2800    0.8010 C   0  0  0  0  0  0  0  0  0  0  0  0
    1.2670    0.4550    1.8530 C   0  0  0  0  0  0  0  0  0  0  0  0
   -0.3350   -0.5210    0.3740 C   0  0  3  0  0  0  0  0  0  0  0  0
    1.3810   -1.8480   -1.0240 C   0  0  0  0  0  0  0  0  0  0  0  0
    2.7840   -2.2460   -1.3690 C   0  0  0  0  0  0  0  0  0  0  0  0
    1.8350    1.0580    2.7450 O   0  0  0  0  0  0  0  0  0  0  0  0
    3.2380   -0.2570    0.7400 O   0  0  0  0  0  0  0  0  0  0  0  0
   -1.0800    0.2790   -0.6770 C   0  0  0  0  0  0  0  0  0  0  0  0
   -2.5090    1.7370   -2.6160 N   0  0  0  0  0  0  0  0  0  0  0  0
   -1.1420    0.7700    2.4380 C   0  0  0  0  0  0  0  0  0  0  0  0
    3.7470   -2.3900   -0.3540 C   0  0  0  0  0  0  0  0  0  0  0  0
    3.1490   -2.4480   -2.6890 C   0  0  0  0  0  0  0  0  0  0  0  0
    0.4350   -2.5000   -1.7940 O   0  0  0  0  0  0  0  0  0  0  0  0
   -1.7500   -0.3260    3.2960 C   0  0  0  0  0  0  0  0  0  0  0  0
   -3.4040   -0.9140    4.9960 N   0  3  0  0  0  0  0  0  0  0  0  0
    5.4140   -2.9550   -2.0130 C   0  0  0  0  0  0  0  0  0  0  0  0
    5.0580   -2.7490   -0.6830 C   0  0  0  0  0  0  0  0  0  0  0  0
    4.4600   -2.8060   -3.0160 C   0  0  0  0  0  0  0  0  0  0  0  0
    6.6680   -3.3060   -2.4580 O   0  0  0  0  0  0  0  0  0  0  0  0
   -2.8530    0.1940    4.1870 C   0  0  0  0  0  0  0  0  0  0  0  0
   -3.0070    0.6120   -2.0590 C   0  0  0  0  0  0  0  0  0  0  0  0
   -1.2880    2.1250   -2.1890 C   0  0  0  0  0  0  0  0  0  0  0  0
   -2.3450   -0.1400   -1.1010 C   0  0  0  0  0  0  0  0  0  0  0  0
   -0.5440    1.4450   -1.2370 C   0  0  0  0  0  0  0  0  0  0  0  0
   -4.7500   -0.5290    5.6170 C   0  0  0  0  0  0  0  0  0  0  0  0
   -2.4850   -1.4290    6.0810 C   0  0  0  0  0  0  0  0  0  0  0  0
    7.6790   -3.4710   -1.4700 C   0  0  0  0  0  0  0  0  0  0  0  0
   -5.8400   -0.4160    4.5570 C   0  0  0  0  0  0  0  0  0  0  0  0
   -2.8820   -2.7680    6.6160 C   0  0  0  0  0  0  0  0  0  0  0  0
   -0.9980   -1.3690    0.5470 H   0  0  0  0  0  0  0  0  0  0  0  0
   -0.7370    1.5440    3.0900 H   0  0  0  0  0  0  0  0  0  0  0  0
   -1.9220    1.1970    1.8080 H   0  0  0  0  0  0  0  0  0  0  0  0
    3.4740   -2.2240    0.6780 H   0  0  0  0  0  0  0  0  0  0  0  0
    2.4150   -2.3280   -3.4720 H   0  0  0  0  0  0  0  0  0  0  0  0
   -0.4770   -2.2780   -1.5910 H   0  0  0  0  0  0  0  0  0  0  0  0
   -0.9680   -0.7580    3.9210 H   0  0  0  0  0  0  0  0  0  0  0  0
   -2.1600   -1.0970    2.6430 H   0  0  0  0  0  0  0  0  0  0  0  0
   -3.5200   -1.6700    4.3370 H   0  0  0  0  0  0  0  0  0  0  0  0
    5.7960   -2.8670    0.0970 H   0  0  0  0  0  0  0  0  0  0  0  0
    4.7330   -2.9670   -4.0480 H   0  0  0  0  0  0  0  0  0  0  0  0
   -3.6440    0.6220    3.5720 H   0  0  0  0  0  0  0  0  0  0  0  0
   -2.4520    0.9620    4.8490 H   0  0  0  0  0  0  0  0  0  0  0  0
   -3.9820    0.2770   -2.3800 H   0  0  0  0  0  0  0  0  0  0  0  0
   -0.8640    3.0220   -2.6160 H   0  0  0  0  0  0  0  0  0  0  0  0
   -2.7970   -1.0310   -0.6910 H   0  0  0  0  0  0  0  0  0  0  0  0
    0.4280    1.8070   -0.9340 H   0  0  0  0  0  0  0  0  0  0  0  0
   -5.0370   -1.2910    6.3410 H   0  0  0  0  0  0  0  0  0  0  0  0
   -4.6460    0.4310    6.1220 H   0  0  0  0  0  0  0  0  0  0  0  0
   -1.4780   -1.5060    5.6720 H   0  0  0  0  0  0  0  0  0  0  0  0
   -2.4890   -0.7140    6.9040 H   0  0  0  0  0  0  0  0  0  0  0  0
    8.6170   -3.7470   -1.9520 H   0  0  0  0  0  0  0  0  0  0  0  0
    7.3830   -4.2570   -0.7750 H   0  0  0  0  0  0  0  0  0  0  0  0
    7.8110   -2.5360   -0.9260 H   0  0  0  0  0  0  0  0  0  0  0  0
   -5.9510   -1.3730    4.0470 H   0  0  0  0  0  0  0  0  0  0  0  0
   -5.5650    0.3520    3.8340 H   0  0  0  0  0  0  0  0  0  0  0  0
   -6.7830   -0.1470    5.0330 H   0  0  0  0  0  0  0  0  0  0  0  0
   -2.8840   -3.4970    5.8060 H   0  0  0  0  0  0  0  0  0  0  0  0
   -3.8800   -2.7050    7.0500 H   0  0  0  0  0  0  0  0  0  0  0  0
   -2.1720   -3.0780    7.3820 H   0  0  0  0  0  0  0  0  0  0  0  0
  1  3  1  0  0  0  0
  1  5  1  0  0  0  0
  1  6  2  0  0  0  0
  2  4  1  0  0  0  0
  2  5  1  0  0  0  0
  2 12  1  0  0  0  0
  3  4  1  0  0  0  0
  3  9  2  0  0  0  0
  4  8  2  0  0  0  0
  5 10  1  0  0  0  0
  5 32  1  0  0  0  0
  6  7  1  0  0  0  0
  6 15  1  0  0  0  0
  7 13  2  0  0  0  0
  7 14  1  0  0  0  0
 10 25  1  0  0  0  0
 10 26  2  0  0  0  0
 11 23  1  0  0  0  0
 11 24  2  0  0  0  0
 12 16  1  0  0  0  0
 12 33  1  0  0  0  0
 12 34  1  0  0  0  0
 13 19  1  0  0  0  0
 13 35  1  0  0  0  0
 14 20  2  0  0  0  0
 14 36  1  0  0  0  0
 15 37  1  0  0  0  0
 16 22  1  0  0  0  0
 16 38  1  0  0  0  0
 16 39  1  0  0  0  0
 17 22  1  0  0  0  0
 17 27  1  0  0  0  0
 17 28  1  0  0  0  0
 17 40  1  0  0  0  0
 18 19  2  0  0  0  0
 18 20  1  0  0  0  0
 18 21  1  0  0  0  0
 19 41  1  0  0  0  0
 20 42  1  0  0  0  0
 21 29  1  0  0  0  0
 22 43  1  0  0  0  0
 22 44  1  0  0  0  0
 23 25  2  0  0  0  0
 23 45  1  0  0  0  0
 24 26  1  0  0  0  0
 24 46  1  0  0  0  0
 25 47  1  0  0  0  0
 26 48  1  0  0  0  0
 27 30  1  0  0  0  0
 27 49  1  0  0  0  0
 27 50  1  0  0  0  0
 28 31  1  0  0  0  0
 28 51  1  0  0  0  0
 28 52  1  0  0  0  0
 29 53  1  0  0  0  0
 29 54  1  0  0  0  0
 29 55  1  0  0  0  0
 30 56  1  0  0  0  0
 30 57  1  0  0  0  0
 30 58  1  0  0  0  0
 31 59  1  0  0  0  0
 31 60  1  0  0  0  0
 31 61  1  0  0  0  0
M  CHG  1  17   1
M  END
>  <$CLUSTER>
920

>  <INDEX>
594734

$$$$
Princeton Biomolecular OSSK_633669
  MOE2020           3D

 56 59  0  0  0  0  0  0  0  0999 V2000
    0.0690    1.4710   -0.1450 C   0  0  0  0  0  0  0  0  0  0  0  0
   -0.0350   -0.6620    1.1830 C   0  0  0  0  0  0  0  0  0  0  0  0
    1.4190   -0.5100   -0.8390 N   0  0  0  0  0  0  0  0  0  0  0  0
   -1.0390   -0.5520   -1.0980 N   0  0  0  0  0  0  0  0  0  0  0  0
    0.2720   -0.9360   -1.6830 C   0  0  0  0  0  0  0  0  0  0  0  0
   -0.0560    0.8860    1.2860 C   0  0  0  0  0  0  0  0  0  0  0  0
   -1.1920   -1.1190    0.2600 C   0  0  0  0  0  0  0  0  0  0  0  0
    1.4040    0.9680   -0.7510 C   0  0  0  0  0  0  0  0  0  0  0  0
   -1.0950    0.9260   -1.0140 C   0  0  0  0  0  0  0  0  0  0  0  0
    1.3030   -1.0740    0.5220 C   0  0  0  0  0  0  0  0  0  0  0  0
    0.3370   -2.4260   -2.0520 C   0  0  0  0  0  0  0  0  0  0  0  0
    0.4280   -5.1470   -2.6810 C   0  0  0  0  0  0  0  0  0  0  0  0
    0.3750   -3.3870   -1.0260 C   0  0  0  0  0  0  0  0  0  0  0  0
    0.3380   -2.8330   -3.3750 C   0  0  0  0  0  0  0  0  0  0  0  0
    0.3850   -4.1920   -3.6940 C   0  0  0  0  0  0  0  0  0  0  0  0
    0.4220   -4.7450   -1.3470 C   0  0  0  0  0  0  0  0  0  0  0  0
   -0.1680   -1.3240    2.5590 C   0  0  0  0  0  0  0  0  0  0  0  0
    0.0370    3.0030   -0.1260 C   0  0  0  0  0  0  0  0  0  0  0  0
   -1.2560    1.3500    1.8990 O   0  0  0  0  0  0  0  0  0  0  0  0
    0.4770   -6.6340   -3.0550 C   0  0  0  0  0  0  0  0  0  0  0  0
   -0.7540   -7.3860   -2.5430 C   0  0  0  0  0  0  0  0  0  0  0  0
    1.7660   -7.2960   -2.5610 C   0  0  0  0  0  0  0  0  0  0  0  0
   -0.1550   -2.8190    2.6390 C   0  0  0  0  0  0  0  0  0  0  0  0
    0.1580    3.7350   -1.4300 C   0  0  0  0  0  0  0  0  0  0  0  0
    0.3610   -0.3850   -2.6190 H   0  0  0  0  0  0  0  0  0  0  0  0
    0.7770    1.2140    1.9080 H   0  0  0  0  0  0  0  0  0  0  0  0
   -2.1390   -0.7840    0.6820 H   0  0  0  0  0  0  0  0  0  0  0  0
   -1.1880   -2.2070    0.1950 H   0  0  0  0  0  0  0  0  0  0  0  0
    2.2290    1.2970   -0.1190 H   0  0  0  0  0  0  0  0  0  0  0  0
    1.5230    1.3870   -1.7500 H   0  0  0  0  0  0  0  0  0  0  0  0
   -1.0180    1.3440   -2.0180 H   0  0  0  0  0  0  0  0  0  0  0  0
   -2.0440    1.2230   -0.5680 H   0  0  0  0  0  0  0  0  0  0  0  0
    1.3510   -2.1610    0.4620 H   0  0  0  0  0  0  0  0  0  0  0  0
    2.1290   -0.7070    1.1310 H   0  0  0  0  0  0  0  0  0  0  0  0
    0.3680   -3.0750    0.0080 H   0  0  0  0  0  0  0  0  0  0  0  0
    0.3020   -2.0960   -4.1640 H   0  0  0  0  0  0  0  0  0  0  0  0
    0.3880   -4.5030   -4.7280 H   0  0  0  0  0  0  0  0  0  0  0  0
    0.4540   -5.4840   -0.5610 H   0  0  0  0  0  0  0  0  0  0  0  0
   -1.1120   -0.9870    2.9880 H   0  0  0  0  0  0  0  0  0  0  0  0
    0.6580   -0.9620    3.1710 H   0  0  0  0  0  0  0  0  0  0  0  0
    0.8600    3.3350    0.5070 H   0  0  0  0  0  0  0  0  0  0  0  0
   -0.9100    3.3000    0.3240 H   0  0  0  0  0  0  0  0  0  0  0  0
   -1.9910    1.0620    1.3530 H   0  0  0  0  0  0  0  0  0  0  0  0
    0.4700   -6.6890   -4.1440 H   0  0  0  0  0  0  0  0  0  0  0  0
   -0.7750   -7.3490   -1.4540 H   0  0  0  0  0  0  0  0  0  0  0  0
   -0.7070   -8.4250   -2.8700 H   0  0  0  0  0  0  0  0  0  0  0  0
   -1.6560   -6.9200   -2.9400 H   0  0  0  0  0  0  0  0  0  0  0  0
    1.8010   -7.2560   -1.4720 H   0  0  0  0  0  0  0  0  0  0  0  0
    2.6260   -6.7680   -2.9720 H   0  0  0  0  0  0  0  0  0  0  0  0
    1.7880   -8.3360   -2.8870 H   0  0  0  0  0  0  0  0  0  0  0  0
   -0.9700   -3.2220    2.0380 H   0  0  0  0  0  0  0  0  0  0  0  0
   -0.2810   -3.1280    3.6760 H   0  0  0  0  0  0  0  0  0  0  0  0
    0.7960   -3.1950    2.2610 H   0  0  0  0  0  0  0  0  0  0  0  0
    1.0970    3.4640   -1.9130 H   0  0  0  0  0  0  0  0  0  0  0  0
    0.1410    4.8090   -1.2470 H   0  0  0  0  0  0  0  0  0  0  0  0
   -0.6760    3.4640   -2.0780 H   0  0  0  0  0  0  0  0  0  0  0  0
  1  6  1  0  0  0  0
  1  8  1  0  0  0  0
  1  9  1  0  0  0  0
  1 18  1  0  0  0  0
  2  6  1  0  0  0  0
  2  7  1  0  0  0  0
  2 10  1  0  0  0  0
  2 17  1  0  0  0  0
  3  5  1  0  0  0  0
  3  8  1  0  0  0  0
  3 10  1  0  0  0  0
  4  5  1  0  0  0  0
  4  7  1  0  0  0  0
  4  9  1  0  0  0  0
  5 11  1  0  0  0  0
  5 25  1  0  0  0  0
  6 19  1  0  0  0  0
  6 26  1  0  0  0  0
  7 27  1  0  0  0  0
  7 28  1  0  0  0  0
  8 29  1  0  0  0  0
  8 30  1  0  0  0  0
  9 31  1  0  0  0  0
  9 32  1  0  0  0  0
 10 33  1  0  0  0  0
 10 34  1  0  0  0  0
 11 13  1  0  0  0  0
 11 14  2  0  0  0  0
 12 15  2  0  0  0  0
 12 16  1  0  0  0  0
 12 20  1  0  0  0  0
 13 16  2  0  0  0  0
 13 35  1  0  0  0  0
 14 15  1  0  0  0  0
 14 36  1  0  0  0  0
 15 37  1  0  0  0  0
 16 38  1  0  0  0  0
 17 23  1  0  0  0  0
 17 39  1  0  0  0  0
 17 40  1  0  0  0  0
 18 24  1  0  0  0  0
 18 41  1  0  0  0  0
 18 42  1  0  0  0  0
 19 43  1  0  0  0  0
 20 21  1  0  0  0  0
 20 22  1  0  0  0  0
 20 44  1  0  0  0  0
 21 45  1  0  0  0  0
 21 46  1  0  0  0  0
 21 47  1  0  0  0  0
 22 48  1  0  0  0  0
 22 49  1  0  0  0  0
 22 50  1  0  0  0  0
 23 51  1  0  0  0  0
 23 52  1  0  0  0  0
 23 53  1  0  0  0  0
 24 54  1  0  0  0  0
 24 55  1  0  0  0  0
 24 56  1  0  0  0  0
M  END
>  <$CLUSTER>
921

>  <INDEX>
591143

$$$$
Pharmeks PHAR066478
  MOE2020           3D

 55 57  0  0  0  0  0  0  0  0999 V2000
   -3.0810   -0.2220   -0.3650 C   0  0  0  0  0  0  0  0  0  0  0  0
   -2.8470   -1.6750   -0.6270 C   0  0  0  0  0  0  0  0  0  0  0  0
   -3.8970   -2.5190   -0.2840 N   0  0  0  0  0  0  0  0  0  0  0  0
   -0.8000    0.6510    0.1500 N   0  0  0  0  0  0  0  0  0  0  0  0
   -4.2460    0.1700    0.1490 C   0  0  0  0  0  0  0  0  0  0  0  0
   -0.7610    1.3170    1.3930 C   0  0  0  0  0  0  0  0  0  0  0  0
   -1.9750    0.7570   -0.7430 C   0  0  0  0  0  0  0  0  0  0  0  0
   -5.2810   -0.7780    0.4780 C   0  0  0  0  0  0  0  0  0  0  0  0
   -5.0780   -2.0800    0.2550 C   0  0  0  0  0  0  0  0  0  0  0  0
    0.3050   -0.1860   -0.2850 C   0  0  0  0  0  0  0  0  0  0  0  0
   -1.7970    2.3970    1.6160 C   0  0  0  0  0  0  0  0  0  0  0  0
   -1.7980   -2.0840   -1.1180 O   0  0  0  0  0  0  0  0  0  0  0  0
    0.0310    1.0790    2.3080 O   0  0  0  0  0  0  0  0  0  0  0  0
   -6.5060   -0.3080    1.0420 C   0  0  0  0  0  0  0  0  0  0  0  0
   -6.0940   -3.0370    0.5720 C   0  0  0  0  0  0  0  0  0  0  0  0
    1.6050   -0.0080    0.2220 C   0  0  0  0  0  0  0  0  0  0  0  0
    0.1330   -1.1860   -1.2590 C   0  0  0  0  0  0  0  0  0  0  0  0
   -7.5030   -1.2340    1.3550 C   0  0  0  0  0  0  0  0  0  0  0  0
    2.4690   -1.8020   -1.1520 C   0  0  0  0  0  0  0  0  0  0  0  0
   -7.2970   -2.5950    1.1200 C   0  0  0  0  0  0  0  0  0  0  0  0
    2.6730   -0.8090   -0.2030 C   0  0  0  0  0  0  0  0  0  0  0  0
    1.1990   -1.9880   -1.6830 C   0  0  0  0  0  0  0  0  0  0  0  0
   -8.7270   -0.9250    1.8980 O   0  0  0  0  0  0  0  0  0  0  0  0
    3.4280   -2.6400   -1.6500 O   0  0  0  0  0  0  0  0  0  0  0  0
   -1.7610    3.0880    2.9110 C   0  0  0  0  0  0  0  0  0  0  0  0
   -8.9900    0.4490    2.1570 C   0  0  0  0  0  0  0  0  0  0  0  0
    4.7470   -2.4830   -1.1400 C   0  0  0  0  0  0  0  0  0  0  0  0
   -2.7560    4.2530    2.9740 C   0  0  0  0  0  0  0  0  0  0  0  0
   -2.0270    2.1430    4.1060 C   0  0  0  0  0  0  0  0  0  0  0  0
   -3.7830   -3.5100   -0.4410 H   0  0  0  0  0  0  0  0  0  0  0  0
   -4.4190    1.2220    0.3230 H   0  0  0  0  0  0  0  0  0  0  0  0
   -2.3700    1.7710   -0.6840 H   0  0  0  0  0  0  0  0  0  0  0  0
   -1.6580    0.5500   -1.7650 H   0  0  0  0  0  0  0  0  0  0  0  0
   -2.7800    1.9380    1.5140 H   0  0  0  0  0  0  0  0  0  0  0  0
   -1.6640    3.1480    0.8370 H   0  0  0  0  0  0  0  0  0  0  0  0
   -6.6590    0.7460    1.2230 H   0  0  0  0  0  0  0  0  0  0  0  0
   -5.9310   -4.0890    0.3890 H   0  0  0  0  0  0  0  0  0  0  0  0
    1.7840    0.7640    0.9560 H   0  0  0  0  0  0  0  0  0  0  0  0
   -0.8450   -1.3390   -1.6900 H   0  0  0  0  0  0  0  0  0  0  0  0
   -8.0720   -3.3070    1.3630 H   0  0  0  0  0  0  0  0  0  0  0  0
    3.6590   -0.6540    0.2090 H   0  0  0  0  0  0  0  0  0  0  0  0
    1.0330   -2.7540   -2.4260 H   0  0  0  0  0  0  0  0  0  0  0  0
   -0.7450    3.4750    2.9930 H   0  0  0  0  0  0  0  0  0  0  0  0
   -9.9880    0.5540    2.5840 H   0  0  0  0  0  0  0  0  0  0  0  0
   -8.9320    1.0120    1.2250 H   0  0  0  0  0  0  0  0  0  0  0  0
   -8.2520    0.8340    2.8600 H   0  0  0  0  0  0  0  0  0  0  0  0
    5.4090   -3.2060   -1.6160 H   0  0  0  0  0  0  0  0  0  0  0  0
    4.7420   -2.6490   -0.0630 H   0  0  0  0  0  0  0  0  0  0  0  0
    5.1000   -1.4740   -1.3510 H   0  0  0  0  0  0  0  0  0  0  0  0
   -3.7720    3.8680    2.8920 H   0  0  0  0  0  0  0  0  0  0  0  0
   -2.5610    4.9420    2.1520 H   0  0  0  0  0  0  0  0  0  0  0  0
   -2.6420    4.7780    3.9230 H   0  0  0  0  0  0  0  0  0  0  0  0
   -3.0400    1.7480    4.0380 H   0  0  0  0  0  0  0  0  0  0  0  0
   -1.9150    2.6960    5.0390 H   0  0  0  0  0  0  0  0  0  0  0  0
   -1.3130    1.3190    4.0840 H   0  0  0  0  0  0  0  0  0  0  0  0
  1  2  1  0  0  0  0
  1  5  2  0  0  0  0
  1  7  1  0  0  0  0
  2  3  1  0  0  0  0
  2 12  2  0  0  0  0
  3  9  1  0  0  0  0
  3 30  1  0  0  0  0
  4  6  1  0  0  0  0
  4  7  1  0  0  0  0
  4 10  1  0  0  0  0
  5  8  1  0  0  0  0
  5 31  1  0  0  0  0
  6 11  1  0  0  0  0
  6 13  2  0  0  0  0
  7 32  1  0  0  0  0
  7 33  1  0  0  0  0
  8  9  2  0  0  0  0
  8 14  1  0  0  0  0
  9 15  1  0  0  0  0
 10 16  2  0  0  0  0
 10 17  1  0  0  0  0
 11 25  1  0  0  0  0
 11 34  1  0  0  0  0
 11 35  1  0  0  0  0
 14 18  2  0  0  0  0
 14 36  1  0  0  0  0
 15 20  2  0  0  0  0
 15 37  1  0  0  0  0
 16 21  1  0  0  0  0
 16 38  1  0  0  0  0
 17 22  2  0  0  0  0
 17 39  1  0  0  0  0
 18 20  1  0  0  0  0
 18 23  1  0  0  0  0
 19 21  2  0  0  0  0
 19 22  1  0  0  0  0
 19 24  1  0  0  0  0
 20 40  1  0  0  0  0
 21 41  1  0  0  0  0
 22 42  1  0  0  0  0
 23 26  1  0  0  0  0
 24 27  1  0  0  0  0
 25 28  1  0  0  0  0
 25 29  1  0  0  0  0
 25 43  1  0  0  0  0
 26 44  1  0  0  0  0
 26 45  1  0  0  0  0
 26 46  1  0  0  0  0
 27 47  1  0  0  0  0
 27 48  1  0  0  0  0
 27 49  1  0  0  0  0
 28 50  1  0  0  0  0
 28 51  1  0  0  0  0
 28 52  1  0  0  0  0
 29 53  1  0  0  0  0
 29 54  1  0  0  0  0
 29 55  1  0  0  0  0
M  END
>  <$CLUSTER>
922

>  <INDEX>
600849

$$$$
Pharmeks PHAR073549
  MOE2020           3D

 53 57  0  0  0  0  0  0  0  0999 V2000
   -0.5220    0.8000    1.5630 C   0  0  0  0  0  0  0  0  0  0  0  0
   -1.1470    0.9970    0.3700 C   0  0  0  0  0  0  0  0  0  0  0  0
    0.4560   -0.1350    1.4670 N   0  0  0  0  0  0  0  0  0  0  0  0
    0.4270   -0.5670    0.2090 C   0  0  0  0  0  0  0  0  0  0  0  0
   -0.5220    0.1570   -0.5170 N   0  0  0  0  0  0  0  0  0  0  0  0
   -0.9000    1.5220    2.6840 N   0  0  0  0  0  0  0  0  0  0  0  0
   -2.5640    2.6410    1.2900 N   0  0  0  0  0  0  0  0  0  0  0  0
   -1.9540    2.4650    2.5380 C   0  0  0  0  0  0  0  0  0  0  0  0
   -2.1920    1.9540    0.2530 C   0  0  0  0  0  0  0  0  0  0  0  0
    1.2470   -1.5350   -0.3030 N   0  0  0  0  0  0  0  0  0  0  0  0
    2.5340   -1.7570    0.3450 C   0  0  0  0  0  0  0  0  0  0  0  0
   -0.8250    0.1260   -1.9360 C   0  0  0  0  0  0  0  0  0  0  0  0
    2.7220   -3.2360    0.6740 C   0  0  0  0  0  0  0  0  0  0  0  0
   -2.3380    3.1330    3.5010 O   0  0  0  0  0  0  0  0  0  0  0  0
    0.9020   -2.4150   -1.4000 C   0  0  0  0  0  0  0  0  0  0  0  0
    1.9240   -4.2330    0.0830 C   0  0  0  0  0  0  0  0  0  0  0  0
   -2.7500    2.1030   -0.9300 O   0  0  0  0  0  0  0  0  0  0  0  0
    0.1950    0.8910   -2.7610 C   0  0  0  0  0  0  0  0  0  0  0  0
    0.8020   -3.8520   -0.8490 C   0  0  0  0  0  0  0  0  0  0  0  0
   -0.2330    1.3130    3.9600 C   0  0  0  0  0  0  0  0  0  0  0  0
    1.3090    0.2330   -3.2900 C   0  0  0  0  0  0  0  0  0  0  0  0
    2.2610    0.9430   -4.0230 C   0  0  0  0  0  0  0  0  0  0  0  0
    1.0070    2.9770   -3.6850 C   0  0  0  0  0  0  0  0  0  0  0  0
    3.7460   -3.6050    1.5560 C   0  0  0  0  0  0  0  0  0  0  0  0
    0.0530    2.2690   -2.9510 C   0  0  0  0  0  0  0  0  0  0  0  0
    2.1380   -5.5780    0.4120 C   0  0  0  0  0  0  0  0  0  0  0  0
    2.1090    2.3150   -4.2210 C   0  0  0  0  0  0  0  0  0  0  0  0
    3.4450    0.2380   -4.5980 C   0  0  0  0  0  0  0  0  0  0  0  0
    3.9580   -4.9480    1.8690 C   0  0  0  0  0  0  0  0  0  0  0  0
    3.1530   -5.9330    1.3000 C   0  0  0  0  0  0  0  0  0  0  0  0
    2.5760   -1.1770    1.2670 H   0  0  0  0  0  0  0  0  0  0  0  0
    3.3320   -1.4350   -0.3240 H   0  0  0  0  0  0  0  0  0  0  0  0
   -1.8080    0.5700   -2.0940 H   0  0  0  0  0  0  0  0  0  0  0  0
   -0.8380   -0.9120   -2.2690 H   0  0  0  0  0  0  0  0  0  0  0  0
    1.6730   -2.3670   -2.1690 H   0  0  0  0  0  0  0  0  0  0  0  0
   -0.0550   -2.1160   -1.8270 H   0  0  0  0  0  0  0  0  0  0  0  0
   -3.4520    2.7570   -0.9680 H   0  0  0  0  0  0  0  0  0  0  0  0
    0.8080   -4.5430   -1.6920 H   0  0  0  0  0  0  0  0  0  0  0  0
   -0.1400   -3.9460   -0.3080 H   0  0  0  0  0  0  0  0  0  0  0  0
    0.5380    0.5510    3.8460 H   0  0  0  0  0  0  0  0  0  0  0  0
   -0.9620    0.9850    4.7010 H   0  0  0  0  0  0  0  0  0  0  0  0
    0.2240    2.2460    4.2880 H   0  0  0  0  0  0  0  0  0  0  0  0
    1.4330   -0.8280   -3.1310 H   0  0  0  0  0  0  0  0  0  0  0  0
    0.8900    4.0400   -3.8370 H   0  0  0  0  0  0  0  0  0  0  0  0
    4.3750   -2.8450    1.9960 H   0  0  0  0  0  0  0  0  0  0  0  0
   -0.7960    2.7870   -2.5290 H   0  0  0  0  0  0  0  0  0  0  0  0
    1.5140   -6.3440   -0.0240 H   0  0  0  0  0  0  0  0  0  0  0  0
    2.8450    2.8640   -4.7900 H   0  0  0  0  0  0  0  0  0  0  0  0
    3.3960   -0.8210   -4.3440 H   0  0  0  0  0  0  0  0  0  0  0  0
    4.3590    0.6690   -4.1880 H   0  0  0  0  0  0  0  0  0  0  0  0
    3.4440    0.3520   -5.6820 H   0  0  0  0  0  0  0  0  0  0  0  0
    4.7470   -5.2250    2.5530 H   0  0  0  0  0  0  0  0  0  0  0  0
    3.3150   -6.9720    1.5470 H   0  0  0  0  0  0  0  0  0  0  0  0
  1  2  2  0  0  0  0
  1  3  1  0  0  0  0
  1  6  1  0  0  0  0
  2  5  1  0  0  0  0
  2  9  1  0  0  0  0
  3  4  2  0  0  0  0
  4  5  1  0  0  0  0
  4 10  1  0  0  0  0
  5 12  1  0  0  0  0
  6  8  1  0  0  0  0
  6 20  1  0  0  0  0
  7  8  1  0  0  0  0
  7  9  2  0  0  0  0
  8 14  2  0  0  0  0
  9 17  1  0  0  0  0
 10 11  1  0  0  0  0
 10 15  1  0  0  0  0
 11 13  1  0  0  0  0
 11 31  1  0  0  0  0
 11 32  1  0  0  0  0
 12 18  1  0  0  0  0
 12 33  1  0  0  0  0
 12 34  1  0  0  0  0
 13 16  2  0  0  0  0
 13 24  1  0  0  0  0
 15 19  1  0  0  0  0
 15 35  1  0  0  0  0
 15 36  1  0  0  0  0
 16 19  1  0  0  0  0
 16 26  1  0  0  0  0
 17 37  1  0  0  0  0
 18 21  2  0  0  0  0
 18 25  1  0  0  0  0
 19 38  1  0  0  0  0
 19 39  1  0  0  0  0
 20 40  1  0  0  0  0
 20 41  1  0  0  0  0
 20 42  1  0  0  0  0
 21 22  1  0  0  0  0
 21 43  1  0  0  0  0
 22 27  2  0  0  0  0
 22 28  1  0  0  0  0
 23 25  2  0  0  0  0
 23 27  1  0  0  0  0
 23 44  1  0  0  0  0
 24 29  2  0  0  0  0
 24 45  1  0  0  0  0
 25 46  1  0  0  0  0
 26 30  2  0  0  0  0
 26 47  1  0  0  0  0
 27 48  1  0  0  0  0
 28 49  1  0  0  0  0
 28 50  1  0  0  0  0
 28 51  1  0  0  0  0
 29 30  1  0  0  0  0
 29 52  1  0  0  0  0
 30 53  1  0  0  0  0
M  END
>  <$CLUSTER>
923

>  <INDEX>
601827

$$$$
Life Chemicals F0631-0161
  MOE2020           3D

 51 54  0  0  1  0  0  0  0  0999 V2000
    0.0160    0.5500   -0.0420 N   0  0  0  0  0  0  0  0  0  0  0  0
    0.4960   -0.1910   -1.0850 C   0  0  0  0  0  0  0  0  0  0  0  0
   -0.7000   -1.4920    0.6100 C   0  0  0  0  0  0  0  0  0  0  0  0
   -0.6600   -0.1800    0.9190 C   0  0  0  0  0  0  0  0  0  0  0  0
    0.1170   -1.8730   -0.9130 S   0  0  0  0  0  0  0  0  0  0  0  0
    1.1240    0.5350   -1.9640 N   0  0  0  0  0  0  0  0  0  0  0  0
    0.3410    1.8440   -0.2310 N   0  0  0  0  0  0  0  0  0  0  0  0
    1.0030    1.7790   -1.3960 C   0  0  0  0  0  0  0  0  0  0  0  0
   -1.3940   -2.5550    1.4700 C   0  0  3  0  0  0  0  0  0  0  0  0
   -2.4120   -3.3440    0.7090 N   0  3  0  0  0  0  0  0  0  0  0  0
   -0.4110   -3.5400    2.1000 C   0  0  0  0  0  0  0  0  0  0  0  0
   -1.2090    0.3940    2.0330 O   0  0  0  0  0  0  0  0  0  0  0  0
    1.3670   -5.3770    3.3280 C   0  0  0  0  0  0  0  0  0  0  0  0
   -0.5050   -3.8590    3.4850 C   0  0  0  0  0  0  0  0  0  0  0  0
    0.6070   -4.1850    1.3690 C   0  0  0  0  0  0  0  0  0  0  0  0
    1.4830   -5.0890    1.9710 C   0  0  0  0  0  0  0  0  0  0  0  0
    0.3720   -4.7630    4.0840 C   0  0  0  0  0  0  0  0  0  0  0  0
   -3.9430   -5.6160   -0.2610 O   0  0  0  0  0  0  0  0  0  0  0  0
    2.3170   -6.3660    4.0110 C   0  0  0  0  0  0  0  0  0  0  0  0
   -1.9280   -4.2490   -0.3970 C   0  0  0  0  0  0  0  0  0  0  0  0
   -3.4730   -4.0090    1.5350 C   0  0  0  0  0  0  0  0  0  0  0  0
    1.5610    2.9640   -2.0260 C   0  0  0  0  0  0  0  0  0  0  0  0
   -3.0370   -4.9240   -1.1460 C   0  0  0  0  0  0  0  0  0  0  0  0
   -4.5330   -4.7080    0.6950 C   0  0  0  0  0  0  0  0  0  0  0  0
    3.7690   -5.8820    3.9560 C   0  0  0  0  0  0  0  0  0  0  0  0
    2.1890   -7.7720    3.4180 C   0  0  0  0  0  0  0  0  0  0  0  0
   -1.8900   -1.9830    2.2540 H   0  0  0  0  0  0  0  0  0  0  0  0
   -2.8500   -2.5750    0.2220 H   0  0  0  0  0  0  0  0  0  0  0  0
   -1.6540   -0.2160    2.6260 H   0  0  0  0  0  0  0  0  0  0  0  0
   -1.2720   -3.3910    4.0840 H   0  0  0  0  0  0  0  0  0  0  0  0
    0.7120   -3.9740    0.3150 H   0  0  0  0  0  0  0  0  0  0  0  0
    2.2530   -5.5660    1.3830 H   0  0  0  0  0  0  0  0  0  0  0  0
    0.2790   -4.9870    5.1360 H   0  0  0  0  0  0  0  0  0  0  0  0
    2.0220   -6.4180    5.0590 H   0  0  0  0  0  0  0  0  0  0  0  0
   -1.2900   -5.0170    0.0400 H   0  0  0  0  0  0  0  0  0  0  0  0
   -1.3490   -3.6530   -1.1020 H   0  0  0  0  0  0  0  0  0  0  0  0
   -3.9610   -3.2510    2.1490 H   0  0  0  0  0  0  0  0  0  0  0  0
   -2.9980   -4.7480    2.1800 H   0  0  0  0  0  0  0  0  0  0  0  0
    2.0530    2.6830   -2.9570 H   0  0  0  0  0  0  0  0  0  0  0  0
    2.2870    3.4240   -1.3560 H   0  0  0  0  0  0  0  0  0  0  0  0
    0.7610    3.6740   -2.2370 H   0  0  0  0  0  0  0  0  0  0  0  0
   -3.5950   -4.1710   -1.7030 H   0  0  0  0  0  0  0  0  0  0  0  0
   -2.6050   -5.6440   -1.8410 H   0  0  0  0  0  0  0  0  0  0  0  0
   -5.1930   -5.2700    1.3550 H   0  0  0  0  0  0  0  0  0  0  0  0
   -5.1110   -3.9560    0.1580 H   0  0  0  0  0  0  0  0  0  0  0  0
    4.0920   -5.8200    2.9170 H   0  0  0  0  0  0  0  0  0  0  0  0
    4.4070   -6.5840    4.4930 H   0  0  0  0  0  0  0  0  0  0  0  0
    3.8420   -4.8980    4.4190 H   0  0  0  0  0  0  0  0  0  0  0  0
    2.4780   -7.7510    2.3670 H   0  0  0  0  0  0  0  0  0  0  0  0
    1.1560   -8.1100    3.5040 H   0  0  0  0  0  0  0  0  0  0  0  0
    2.8420   -8.4560    3.9610 H   0  0  0  0  0  0  0  0  0  0  0  0
  1  2  1  0  0  0  0
  1  4  1  0  0  0  0
  1  7  1  0  0  0  0
  2  5  1  0  0  0  0
  2  6  2  0  0  0  0
  3  4  2  0  0  0  0
  3  5  1  0  0  0  0
  3  9  1  0  0  0  0
  4 12  1  0  0  0  0
  6  8  1  0  0  0  0
  7  8  2  0  0  0  0
  8 22  1  0  0  0  0
  9 10  1  0  0  0  0
  9 11  1  0  0  0  0
  9 27  1  0  0  0  0
 10 20  1  0  0  0  0
 10 21  1  0  0  0  0
 10 28  1  0  0  0  0
 11 14  1  0  0  0  0
 11 15  2  0  0  0  0
 12 29  1  0  0  0  0
 13 16  2  0  0  0  0
 13 17  1  0  0  0  0
 13 19  1  0  0  0  0
 14 17  2  0  0  0  0
 14 30  1  0  0  0  0
 15 16  1  0  0  0  0
 15 31  1  0  0  0  0
 16 32  1  0  0  0  0
 17 33  1  0  0  0  0
 18 23  1  0  0  0  0
 18 24  1  0  0  0  0
 19 25  1  0  0  0  0
 19 26  1  0  0  0  0
 19 34  1  0  0  0  0
 20 23  1  0  0  0  0
 20 35  1  0  0  0  0
 20 36  1  0  0  0  0
 21 24  1  0  0  0  0
 21 37  1  0  0  0  0
 21 38  1  0  0  0  0
 22 39  1  0  0  0  0
 22 40  1  0  0  0  0
 22 41  1  0  0  0  0
 23 42  1  0  0  0  0
 23 43  1  0  0  0  0
 24 44  1  0  0  0  0
 24 45  1  0  0  0  0
 25 46  1  0  0  0  0
 25 47  1  0  0  0  0
 25 48  1  0  0  0  0
 26 49  1  0  0  0  0
 26 50  1  0  0  0  0
 26 51  1  0  0  0  0
M  CHG  1  10   1
M  END
>  <$CLUSTER>
924

>  <INDEX>
279190

$$$$
Pharmeks PHAR099684
  MOE2020           3D

 60 62  0  0  0  0  0  0  0  0999 V2000
   -0.0660    0.7220   -0.9220 N   0  0  0  0  0  0  0  0  0  0  0  0
   -0.9900   -1.5010   -0.7460 N   0  0  0  0  0  0  0  0  0  0  0  0
   -0.7040   -0.3980   -1.5240 C   0  0  0  0  0  0  0  0  0  0  0  0
    0.3470    0.8000    0.4230 C   0  0  0  0  0  0  0  0  0  0  0  0
    0.0230   -0.4170    1.2050 C   0  0  0  0  0  0  0  0  0  0  0  0
   -0.6560   -1.5060    0.4970 C   0  0  0  0  0  0  0  0  0  0  0  0
    0.1990    1.8900   -1.7720 C   0  0  0  0  0  0  0  0  0  0  0  0
    0.3380   -0.5180    2.5020 C   0  0  0  0  0  0  0  0  0  0  0  0
   -0.9980   -0.3990   -2.7210 O   0  0  0  0  0  0  0  0  0  0  0  0
    0.9260    1.7640    0.9190 O   0  0  0  0  0  0  0  0  0  0  0  0
    1.6900    4.0800   -5.4890 C   0  0  0  0  0  0  0  0  0  0  0  0
    2.3200    5.2070   -4.9630 C   0  0  0  0  0  0  0  0  0  0  0  0
    2.2870    1.2330    6.7650 C   0  0  0  0  0  0  0  0  0  0  0  0
    1.4470    2.9710   -4.6770 C   0  0  0  0  0  0  0  0  0  0  0  0
   -0.9370   -2.5890    1.2560 O   0  0  0  0  0  0  0  0  0  0  0  0
    1.6730    1.9770    7.6990 C   0  0  0  0  0  0  0  0  0  0  0  0
    2.7050    5.2260   -3.6230 C   0  0  0  0  0  0  0  0  0  0  0  0
    0.9600    0.3650    3.3300 N   0  0  0  0  0  0  0  0  0  0  0  0
    1.8370    2.9800   -3.3330 C   0  0  0  0  0  0  0  0  0  0  0  0
    1.5590    1.7860   -2.4480 C   0  0  0  0  0  0  0  0  0  0  0  0
    2.4630    4.1180   -2.8100 C   0  0  0  0  0  0  0  0  0  0  0  0
    1.3420    4.1490   -6.8250 O   0  0  0  0  0  0  0  0  0  0  0  0
    2.5160    6.2550   -5.8390 O   0  0  0  0  0  0  0  0  0  0  0  0
    1.9600    1.3990    5.2820 C   0  0  0  0  0  0  0  0  0  0  0  0
    3.3560    0.2300    7.1170 C   0  0  0  0  0  0  0  0  0  0  0  0
    1.2600    0.1750    4.7170 C   0  0  0  0  0  0  0  0  0  0  0  0
    1.9440    1.8530    9.1700 C   0  0  0  0  0  0  0  0  0  0  0  0
    0.6990    3.0160   -7.3960 C   0  0  0  0  0  0  0  0  0  0  0  0
    3.1540    7.4210   -5.3340 C   0  0  0  0  0  0  0  0  0  0  0  0
    3.8890    0.3850    8.5440 C   0  0  0  0  0  0  0  0  0  0  0  0
    2.7520    0.6070    9.5340 C   0  0  0  0  0  0  0  0  0  0  0  0
   -0.5740    1.9540   -2.5380 H   0  0  0  0  0  0  0  0  0  0  0  0
    0.1760    2.7890   -1.1570 H   0  0  0  0  0  0  0  0  0  0  0  0
    0.0530   -1.4500    2.9660 H   0  0  0  0  0  0  0  0  0  0  0  0
    0.9560    2.1020   -5.0880 H   0  0  0  0  0  0  0  0  0  0  0  0
   -1.3830   -3.3030    0.7950 H   0  0  0  0  0  0  0  0  0  0  0  0
    0.9440    2.7050    7.3740 H   0  0  0  0  0  0  0  0  0  0  0  0
    3.1910    6.0990   -3.2140 H   0  0  0  0  0  0  0  0  0  0  0  0
    1.2390    1.2460    2.9240 H   0  0  0  0  0  0  0  0  0  0  0  0
    2.3310    1.7280   -1.6810 H   0  0  0  0  0  0  0  0  0  0  0  0
    1.5830    0.8820   -3.0570 H   0  0  0  0  0  0  0  0  0  0  0  0
    2.7600    4.1380   -1.7720 H   0  0  0  0  0  0  0  0  0  0  0  0
    2.8870    1.5600    4.7320 H   0  0  0  0  0  0  0  0  0  0  0  0
    1.3100    2.2650    5.1590 H   0  0  0  0  0  0  0  0  0  0  0  0
    2.9390   -0.7710    7.0110 H   0  0  0  0  0  0  0  0  0  0  0  0
    4.1870    0.3530    6.4230 H   0  0  0  0  0  0  0  0  0  0  0  0
    0.3330    0.0070    5.2650 H   0  0  0  0  0  0  0  0  0  0  0  0
    1.9100   -0.6930    4.8280 H   0  0  0  0  0  0  0  0  0  0  0  0
    2.5000    2.7330    9.4950 H   0  0  0  0  0  0  0  0  0  0  0  0
    0.9900    1.8120    9.6950 H   0  0  0  0  0  0  0  0  0  0  0  0
    0.4850    3.2110   -8.4470 H   0  0  0  0  0  0  0  0  0  0  0  0
   -0.2330    2.8210   -6.8650 H   0  0  0  0  0  0  0  0  0  0  0  0
    1.3520    2.1470   -7.3130 H   0  0  0  0  0  0  0  0  0  0  0  0
    3.2420    8.1610   -6.1300 H   0  0  0  0  0  0  0  0  0  0  0  0
    4.1470    7.1620   -4.9670 H   0  0  0  0  0  0  0  0  0  0  0  0
    2.5620    7.8340   -4.5180 H   0  0  0  0  0  0  0  0  0  0  0  0
    4.4310   -0.5190    8.8220 H   0  0  0  0  0  0  0  0  0  0  0  0
    4.5650    1.2400    8.5810 H   0  0  0  0  0  0  0  0  0  0  0  0
    3.1690    0.7320   10.5330 H   0  0  0  0  0  0  0  0  0  0  0  0
    2.0930   -0.2610    9.5210 H   0  0  0  0  0  0  0  0  0  0  0  0
  1  3  1  0  0  0  0
  1  4  1  0  0  0  0
  1  7  1  0  0  0  0
  2  3  1  0  0  0  0
  2  6  2  0  0  0  0
  3  9  2  0  0  0  0
  4  5  1  0  0  0  0
  4 10  2  0  0  0  0
  5  6  1  0  0  0  0
  5  8  2  0  0  0  0
  6 15  1  0  0  0  0
  7 20  1  0  0  0  0
  7 32  1  0  0  0  0
  7 33  1  0  0  0  0
  8 18  1  0  0  0  0
  8 34  1  0  0  0  0
 11 12  2  0  0  0  0
 11 14  1  0  0  0  0
 11 22  1  0  0  0  0
 12 17  1  0  0  0  0
 12 23  1  0  0  0  0
 13 16  2  0  0  0  0
 13 24  1  0  0  0  0
 13 25  1  0  0  0  0
 14 19  2  0  0  0  0
 14 35  1  0  0  0  0
 15 36  1  0  0  0  0
 16 27  1  0  0  0  0
 16 37  1  0  0  0  0
 17 21  2  0  0  0  0
 17 38  1  0  0  0  0
 18 26  1  0  0  0  0
 18 39  1  0  0  0  0
 19 20  1  0  0  0  0
 19 21  1  0  0  0  0
 20 40  1  0  0  0  0
 20 41  1  0  0  0  0
 21 42  1  0  0  0  0
 22 28  1  0  0  0  0
 23 29  1  0  0  0  0
 24 26  1  0  0  0  0
 24 43  1  0  0  0  0
 24 44  1  0  0  0  0
 25 30  1  0  0  0  0
 25 45  1  0  0  0  0
 25 46  1  0  0  0  0
 26 47  1  0  0  0  0
 26 48  1  0  0  0  0
 27 31  1  0  0  0  0
 27 49  1  0  0  0  0
 27 50  1  0  0  0  0
 28 51  1  0  0  0  0
 28 52  1  0  0  0  0
 28 53  1  0  0  0  0
 29 54  1  0  0  0  0
 29 55  1  0  0  0  0
 29 56  1  0  0  0  0
 30 31  1  0  0  0  0
 30 57  1  0  0  0  0
 30 58  1  0  0  0  0
 31 59  1  0  0  0  0
 31 60  1  0  0  0  0
M  END
>  <$CLUSTER>
925

>  <INDEX>
606780

$$$$
Pharmeks PHAR087547
  MOE2020           3D

 31 33  0  0  0  0  0  0  0  0999 V2000
    1.1670    0.4680    1.4610 S   0  0  0  0  0  0  0  0  0  0  0  0
    0.6240   -1.1270    1.9590 C   0  0  0  0  0  0  0  0  0  0  0  0
    0.1590    0.2730    0.0200 C   0  0  0  0  0  0  0  0  0  0  0  0
    0.1290    1.2280   -0.8440 N   0  0  0  0  0  0  0  0  0  0  0  0
   -0.2010   -1.7520    1.1780 N   0  0  0  0  0  0  0  0  0  0  0  0
   -0.6480    1.0980   -1.9730 C   0  0  0  0  0  0  0  0  0  0  0  0
   -0.4480   -0.9560    0.1020 N   0  0  0  0  0  0  0  0  0  0  0  0
    1.1340   -1.6790    3.2460 C   0  0  0  0  0  0  0  0  0  0  0  0
   -0.5600    2.3070   -2.8670 C   0  0  0  0  0  0  0  0  0  0  0  0
    1.9820   -0.9370    3.9660 O   0  0  0  0  0  0  0  0  0  0  0  0
    0.8550   -2.8710    3.8200 C   0  0  0  0  0  0  0  0  0  0  0  0
   -1.3550    0.1410   -2.2820 O   0  0  0  0  0  0  0  0  0  0  0  0
    2.2710   -1.6820    5.0630 C   0  0  0  0  0  0  0  0  0  0  0  0
    1.6030   -2.8810    5.0220 C   0  0  0  0  0  0  0  0  0  0  0  0
    0.5270    3.1490   -2.9280 C   0  0  0  0  0  0  0  0  0  0  0  0
   -1.6670    2.5290   -3.7370 C   0  0  0  0  0  0  0  0  0  0  0  0
   -1.6520    3.6170   -4.6110 C   0  0  0  0  0  0  0  0  0  0  0  0
    0.5360    4.2370   -3.8050 C   0  0  0  0  0  0  0  0  0  0  0  0
   -0.5520    4.4720   -4.6440 C   0  0  0  0  0  0  0  0  0  0  0  0
   -0.5340    5.6400   -5.5740 C   0  0  0  0  0  0  0  0  0  0  0  0
   -1.0720   -1.2660   -0.6290 H   0  0  0  0  0  0  0  0  0  0  0  0
    0.2040   -3.6460    3.4440 H   0  0  0  0  0  0  0  0  0  0  0  0
    2.9340   -1.3740    5.8580 H   0  0  0  0  0  0  0  0  0  0  0  0
    1.6410   -3.6710    5.7570 H   0  0  0  0  0  0  0  0  0  0  0  0
    1.3810    2.9670   -2.2920 H   0  0  0  0  0  0  0  0  0  0  0  0
   -2.5130    1.8580   -3.7200 H   0  0  0  0  0  0  0  0  0  0  0  0
   -2.4940    3.7970   -5.2630 H   0  0  0  0  0  0  0  0  0  0  0  0
    1.3890    4.8980   -3.8330 H   0  0  0  0  0  0  0  0  0  0  0  0
   -1.4610    5.6630   -6.1460 H   0  0  0  0  0  0  0  0  0  0  0  0
    0.3120    5.5490   -6.2560 H   0  0  0  0  0  0  0  0  0  0  0  0
   -0.4390    6.5610   -4.9990 H   0  0  0  0  0  0  0  0  0  0  0  0
  1  2  1  0  0  0  0
  1  3  1  0  0  0  0
  2  5  2  0  0  0  0
  2  8  1  0  0  0  0
  3  4  2  0  0  0  0
  3  7  1  0  0  0  0
  4  6  1  0  0  0  0
  5  7  1  0  0  0  0
  6  9  1  0  0  0  0
  6 12  2  0  0  0  0
  7 21  1  0  0  0  0
  8 10  1  0  0  0  0
  8 11  2  0  0  0  0
  9 15  1  0  0  0  0
  9 16  2  0  0  0  0
 10 13  1  0  0  0  0
 11 14  1  0  0  0  0
 11 22  1  0  0  0  0
 13 14  2  0  0  0  0
 13 23  1  0  0  0  0
 14 24  1  0  0  0  0
 15 18  2  0  0  0  0
 15 25  1  0  0  0  0
 16 17  1  0  0  0  0
 16 26  1  0  0  0  0
 17 19  2  0  0  0  0
 17 27  1  0  0  0  0
 18 19  1  0  0  0  0
 18 28  1  0  0  0  0
 19 20  1  0  0  0  0
 20 29  1  0  0  0  0
 20 30  1  0  0  0  0
 20 31  1  0  0  0  0
M  END
>  <$CLUSTER>
926

>  <INDEX>
603901

$$$$
Pharmeks PHAR059105
  MOE2020           3D

 59 61  0  0  1  0  0  0  0  0999 V2000
   -0.7510   -0.5630    0.8930 C   0  0  0  0  0  0  0  0  0  0  0  0
   -0.1660   -0.5330   -1.3760 N   0  0  0  0  0  0  0  0  0  0  0  0
    0.4390   -0.4380   -0.0430 C   0  0  3  0  0  0  0  0  0  0  0  0
   -1.9610   -0.5200    0.0600 C   0  0  0  0  0  0  0  0  0  0  0  0
   -1.5440   -0.5450   -1.3680 C   0  0  0  0  0  0  0  0  0  0  0  0
    1.1970    0.8400    0.0700 C   0  0  0  0  0  0  0  0  0  0  0  0
   -0.6960   -0.7070    2.2220 C   0  0  0  0  0  0  0  0  0  0  0  0
    2.5480    0.7250    0.2300 O   0  0  0  0  0  0  0  0  0  0  0  0
    0.8370    2.1730    0.0510 C   0  0  0  0  0  0  0  0  0  0  0  0
    0.6310   -0.6400   -2.5940 C   0  0  0  0  0  0  0  0  0  0  0  0
    3.0430    1.9860    0.3130 C   0  0  0  0  0  0  0  0  0  0  0  0
    2.0330    2.9120    0.2080 C   0  0  0  0  0  0  0  0  0  0  0  0
   -1.8520   -0.8650    3.1640 C   0  0  0  0  0  0  0  0  0  0  0  0
   -2.3570   -0.5920   -2.2730 O   0  0  0  0  0  0  0  0  0  0  0  0
   -3.1340   -0.4610    0.3870 O   0  0  0  0  0  0  0  0  0  0  0  0
   -2.9600   -1.6170    2.7620 C   0  0  0  0  0  0  0  0  0  0  0  0
   -1.8270   -0.2480    4.3910 C   0  0  0  0  0  0  0  0  0  0  0  0
    0.5470   -0.7320    2.8410 O   0  0  0  0  0  0  0  0  0  0  0  0
    1.1860   -2.0410   -2.7860 C   0  0  0  0  0  0  0  0  0  0  0  0
    1.9900   -2.0960   -4.0160 N   0  3  0  0  0  0  0  0  0  0  0  0
   -4.0220   -1.1340    4.8800 C   0  0  0  0  0  0  0  0  0  0  0  0
   -2.9130   -0.3830    5.2600 C   0  0  0  0  0  0  0  0  0  0  0  0
   -4.0450   -1.7520    3.6320 C   0  0  0  0  0  0  0  0  0  0  0  0
   -5.0310   -1.1900    5.8190 O   0  0  0  0  0  0  0  0  0  0  0  0
    4.4270    2.2160    0.4830 C   0  0  0  0  0  0  0  0  0  0  0  0
    2.2440   -3.5430   -4.4480 C   0  0  0  0  0  0  0  0  0  0  0  0
    3.3110   -1.3580   -3.9500 C   0  0  0  0  0  0  0  0  0  0  0  0
   -6.1880   -1.9460    5.4770 C   0  0  0  0  0  0  0  0  0  0  0  0
    0.9650   -4.2080   -4.9460 C   0  0  0  0  0  0  0  0  0  0  0  0
    3.9190   -1.0970   -5.2910 C   0  0  0  0  0  0  0  0  0  0  0  0
    1.1790   -1.2030    0.1900 H   0  0  0  0  0  0  0  0  0  0  0  0
   -0.1600    2.5720   -0.0610 H   0  0  0  0  0  0  0  0  0  0  0  0
    0.0030   -0.3890   -3.4490 H   0  0  0  0  0  0  0  0  0  0  0  0
    1.4620    0.0630   -2.5350 H   0  0  0  0  0  0  0  0  0  0  0  0
    2.1320    3.9870    0.2390 H   0  0  0  0  0  0  0  0  0  0  0  0
   -2.9770   -2.0880    1.7900 H   0  0  0  0  0  0  0  0  0  0  0  0
   -0.9700    0.3400    4.6840 H   0  0  0  0  0  0  0  0  0  0  0  0
    1.2970   -0.6410    2.2490 H   0  0  0  0  0  0  0  0  0  0  0  0
    0.3610   -2.7490   -2.8610 H   0  0  0  0  0  0  0  0  0  0  0  0
    1.8120   -2.3020   -1.9330 H   0  0  0  0  0  0  0  0  0  0  0  0
    1.4270   -1.6140   -4.7020 H   0  0  0  0  0  0  0  0  0  0  0  0
   -2.8920    0.0960    6.2280 H   0  0  0  0  0  0  0  0  0  0  0  0
   -4.9030   -2.3370    3.3360 H   0  0  0  0  0  0  0  0  0  0  0  0
    4.6140    3.2890    0.5260 H   0  0  0  0  0  0  0  0  0  0  0  0
    4.9730    1.7850   -0.3560 H   0  0  0  0  0  0  0  0  0  0  0  0
    4.7610    1.7520    1.4110 H   0  0  0  0  0  0  0  0  0  0  0  0
    2.9820   -3.5490   -5.2500 H   0  0  0  0  0  0  0  0  0  0  0  0
    2.6280   -4.1050   -3.5970 H   0  0  0  0  0  0  0  0  0  0  0  0
    3.1470   -0.4010   -3.4540 H   0  0  0  0  0  0  0  0  0  0  0  0
    4.0100   -1.9550   -3.3650 H   0  0  0  0  0  0  0  0  0  0  0  0
   -6.9020   -1.9090    6.2990 H   0  0  0  0  0  0  0  0  0  0  0  0
   -5.9030   -2.9810    5.2900 H   0  0  0  0  0  0  0  0  0  0  0  0
   -6.6440   -1.5270    4.5800 H   0  0  0  0  0  0  0  0  0  0  0  0
    0.5740   -3.6520   -5.7980 H   0  0  0  0  0  0  0  0  0  0  0  0
    0.2240   -4.2150   -4.1460 H   0  0  0  0  0  0  0  0  0  0  0  0
    1.1820   -5.2320   -5.2490 H   0  0  0  0  0  0  0  0  0  0  0  0
    3.2320   -0.5000   -5.8910 H   0  0  0  0  0  0  0  0  0  0  0  0
    4.1110   -2.0450   -5.7940 H   0  0  0  0  0  0  0  0  0  0  0  0
    4.8570   -0.5560   -5.1660 H   0  0  0  0  0  0  0  0  0  0  0  0
  1  3  1  0  0  0  0
  1  4  1  0  0  0  0
  1  7  2  0  0  0  0
  2  3  1  0  0  0  0
  2  5  1  0  0  0  0
  2 10  1  0  0  0  0
  3  6  1  0  0  0  0
  3 31  1  0  0  0  0
  4  5  1  0  0  0  0
  4 15  2  0  0  0  0
  5 14  2  0  0  0  0
  6  8  1  0  0  0  0
  6  9  2  0  0  0  0
  7 13  1  0  0  0  0
  7 18  1  0  0  0  0
  8 11  1  0  0  0  0
  9 12  1  0  0  0  0
  9 32  1  0  0  0  0
 10 19  1  0  0  0  0
 10 33  1  0  0  0  0
 10 34  1  0  0  0  0
 11 12  2  0  0  0  0
 11 25  1  0  0  0  0
 12 35  1  0  0  0  0
 13 16  1  0  0  0  0
 13 17  2  0  0  0  0
 16 23  2  0  0  0  0
 16 36  1  0  0  0  0
 17 22  1  0  0  0  0
 17 37  1  0  0  0  0
 18 38  1  0  0  0  0
 19 20  1  0  0  0  0
 19 39  1  0  0  0  0
 19 40  1  0  0  0  0
 20 26  1  0  0  0  0
 20 27  1  0  0  0  0
 20 41  1  0  0  0  0
 21 22  2  0  0  0  0
 21 23  1  0  0  0  0
 21 24  1  0  0  0  0
 22 42  1  0  0  0  0
 23 43  1  0  0  0  0
 24 28  1  0  0  0  0
 25 44  1  0  0  0  0
 25 45  1  0  0  0  0
 25 46  1  0  0  0  0
 26 29  1  0  0  0  0
 26 47  1  0  0  0  0
 26 48  1  0  0  0  0
 27 30  1  0  0  0  0
 27 49  1  0  0  0  0
 27 50  1  0  0  0  0
 28 51  1  0  0  0  0
 28 52  1  0  0  0  0
 28 53  1  0  0  0  0
 29 54  1  0  0  0  0
 29 55  1  0  0  0  0
 29 56  1  0  0  0  0
 30 57  1  0  0  0  0
 30 58  1  0  0  0  0
 30 59  1  0  0  0  0
M  CHG  1  20   1
M  END
>  <$CLUSTER>
927

>  <INDEX>
599800

$$$$
Pharmeks PHAR059863
  MOE2020           3D

 40 42  0  0  0  0  0  0  0  0999 V2000
    1.2650   -1.2950   -0.6470 S   0  0  0  0  0  0  0  0  0  0  0  0
   -0.0560   -0.3190    0.0080 C   0  0  0  0  0  0  0  0  0  0  0  0
    2.1200    0.2100   -0.9530 C   0  0  0  0  0  0  0  0  0  0  0  0
   -1.1050   -0.9220    0.4520 N   0  0  0  0  0  0  0  0  0  0  0  0
    1.5260    1.3150   -0.6220 N   0  0  0  0  0  0  0  0  0  0  0  0
   -2.1470   -0.1860    0.9670 C   0  0  0  0  0  0  0  0  0  0  0  0
    0.3150    1.0000   -0.0880 N   0  0  0  0  0  0  0  0  0  0  0  0
   -3.1830   -0.9850    1.3950 N   0  0  0  0  0  0  0  0  0  0  0  0
    3.4730    0.1430   -1.5720 C   0  0  0  0  0  0  0  0  0  0  0  0
   -2.2070    1.0400    1.0600 O   0  0  0  0  0  0  0  0  0  0  0  0
    4.2800    1.2930   -1.4370 C   0  0  0  0  0  0  0  0  0  0  0  0
    3.9410   -0.9480   -2.2700 C   0  0  0  0  0  0  0  0  0  0  0  0
   -4.4350   -0.6770    1.9820 C   0  0  0  0  0  0  0  0  0  0  0  0
    6.0310    0.1990   -2.6930 C   0  0  0  0  0  0  0  0  0  0  0  0
    5.5600    1.3090   -1.9980 C   0  0  0  0  0  0  0  0  0  0  0  0
    5.2220   -0.9270   -2.8300 C   0  0  0  0  0  0  0  0  0  0  0  0
    7.3030    0.3410   -3.2010 O   0  0  0  0  0  0  0  0  0  0  0  0
    7.8410   -0.7630   -3.9280 C   0  0  0  0  0  0  0  0  0  0  0  0
   -4.8410    0.6360    2.2380 C   0  0  0  0  0  0  0  0  0  0  0  0
   -5.2990   -1.7300    2.3190 C   0  0  0  0  0  0  0  0  0  0  0  0
    9.2380   -0.3850   -4.3860 C   0  0  0  0  0  0  0  0  0  0  0  0
   -6.5430   -1.4750    2.8990 C   0  0  0  0  0  0  0  0  0  0  0  0
   -6.0880    0.8890    2.8190 C   0  0  0  0  0  0  0  0  0  0  0  0
   -6.9380   -0.1640    3.1500 C   0  0  0  0  0  0  0  0  0  0  0  0
   -0.3050    1.7290    0.2350 H   0  0  0  0  0  0  0  0  0  0  0  0
   -3.0200   -1.9740    1.2670 H   0  0  0  0  0  0  0  0  0  0  0  0
    3.9100    2.1560   -0.9030 H   0  0  0  0  0  0  0  0  0  0  0  0
    3.3170   -1.8220   -2.3850 H   0  0  0  0  0  0  0  0  0  0  0  0
    6.1840    2.1840   -1.8920 H   0  0  0  0  0  0  0  0  0  0  0  0
    5.5860   -1.7880   -3.3710 H   0  0  0  0  0  0  0  0  0  0  0  0
    7.2130   -0.9780   -4.7930 H   0  0  0  0  0  0  0  0  0  0  0  0
    7.8870   -1.6420   -3.2850 H   0  0  0  0  0  0  0  0  0  0  0  0
   -4.1890    1.4590    1.9860 H   0  0  0  0  0  0  0  0  0  0  0  0
   -4.9980   -2.7490    2.1270 H   0  0  0  0  0  0  0  0  0  0  0  0
    9.1840    0.4940   -5.0280 H   0  0  0  0  0  0  0  0  0  0  0  0
    9.6750   -1.2150   -4.9420 H   0  0  0  0  0  0  0  0  0  0  0  0
    9.8580   -0.1630   -3.5170 H   0  0  0  0  0  0  0  0  0  0  0  0
   -7.1990   -2.2950    3.1530 H   0  0  0  0  0  0  0  0  0  0  0  0
   -6.3940    1.9070    3.0120 H   0  0  0  0  0  0  0  0  0  0  0  0
   -7.8990    0.0360    3.5990 H   0  0  0  0  0  0  0  0  0  0  0  0
  1  2  1  0  0  0  0
  1  3  1  0  0  0  0
  2  4  2  0  0  0  0
  2  7  1  0  0  0  0
  3  5  2  0  0  0  0
  3  9  1  0  0  0  0
  4  6  1  0  0  0  0
  5  7  1  0  0  0  0
  6  8  1  0  0  0  0
  6 10  2  0  0  0  0
  7 25  1  0  0  0  0
  8 13  1  0  0  0  0
  8 26  1  0  0  0  0
  9 11  2  0  0  0  0
  9 12  1  0  0  0  0
 11 15  1  0  0  0  0
 11 27  1  0  0  0  0
 12 16  2  0  0  0  0
 12 28  1  0  0  0  0
 13 19  1  0  0  0  0
 13 20  2  0  0  0  0
 14 15  2  0  0  0  0
 14 16  1  0  0  0  0
 14 17  1  0  0  0  0
 15 29  1  0  0  0  0
 16 30  1  0  0  0  0
 17 18  1  0  0  0  0
 18 21  1  0  0  0  0
 18 31  1  0  0  0  0
 18 32  1  0  0  0  0
 19 23  2  0  0  0  0
 19 33  1  0  0  0  0
 20 22  1  0  0  0  0
 20 34  1  0  0  0  0
 21 35  1  0  0  0  0
 21 36  1  0  0  0  0
 21 37  1  0  0  0  0
 22 24  2  0  0  0  0
 22 38  1  0  0  0  0
 23 24  1  0  0  0  0
 23 39  1  0  0  0  0
 24 40  1  0  0  0  0
M  END
>  <$CLUSTER>
928

>  <INDEX>
599906

$$$$
Pharmeks PHAR110543
  MOE2020           3D

 53 56  0  0  0  0  0  0  0  0999 V2000
    0.6810    1.6030   -3.2200 S   0  0  0  0  0  0  0  0  0  0  0  0
    0.1970    0.4540   -0.9920 C   0  0  0  0  0  0  0  0  0  0  0  0
    1.0180    1.2400   -1.6240 N   0  0  0  0  0  0  0  0  0  0  0  0
    0.5190    0.1700    0.4100 C   0  0  0  0  0  0  0  0  0  0  0  0
   -0.2680   -0.6210    1.1460 N   0  3  0  0  0  0  0  0  0  0  0  0
   -0.9450   -0.1560   -1.4670 N   0  0  0  0  0  0  0  0  0  0  0  0
    2.0530    2.6540   -3.5640 C   0  0  0  0  0  0  0  0  0  0  0  0
   -1.3930   -1.2020    0.6450 C   0  0  0  0  0  0  0  0  0  0  0  0
   -1.7560   -0.9790   -0.6840 C   0  0  0  0  0  0  0  0  0  0  0  0
    1.6310    0.7590    0.8590 N   0  0  0  0  0  0  0  0  0  0  0  0
   -0.5180    2.4070   -3.2770 O   0  0  0  0  0  0  0  0  0  0  0  0
    0.8270    0.4070   -4.0170 O   0  0  0  0  0  0  0  0  0  0  0  0
    3.2300    2.1120   -4.0990 C   0  0  0  0  0  0  0  0  0  0  0  0
    4.2990    2.9520   -4.4100 C   0  0  0  0  0  0  0  0  0  0  0  0
    4.1900    4.3290   -4.2100 C   0  0  0  0  0  0  0  0  0  0  0  0
    1.9350    4.0380   -3.3860 C   0  0  0  0  0  0  0  0  0  0  0  0
    3.0090    4.8700   -3.7000 C   0  0  0  0  0  0  0  0  0  0  0  0
    2.1310    0.6060    2.2330 C   0  0  0  0  0  0  0  0  0  0  0  0
    3.4060    1.4090    2.3880 C   0  0  0  0  0  0  0  0  0  0  0  0
   -2.1850   -2.0220    1.4560 C   0  0  0  0  0  0  0  0  0  0  0  0
   -2.9120   -1.5760   -1.1990 C   0  0  0  0  0  0  0  0  0  0  0  0
    5.5670    2.3830   -4.9580 C   0  0  0  0  0  0  0  0  0  0  0  0
    5.3410    5.2190   -4.5460 C   0  0  0  0  0  0  0  0  0  0  0  0
    3.3670    2.7250    2.8760 C   0  0  0  0  0  0  0  0  0  0  0  0
    4.6520    0.8420    2.0770 C   0  0  0  0  0  0  0  0  0  0  0  0
   -3.7000   -2.3930   -0.3880 C   0  0  0  0  0  0  0  0  0  0  0  0
   -3.3370   -2.6160    0.9390 C   0  0  0  0  0  0  0  0  0  0  0  0
    4.5430    3.4600    3.0320 C   0  0  0  0  0  0  0  0  0  0  0  0
    5.8270    1.5790    2.2330 C   0  0  0  0  0  0  0  0  0  0  0  0
    5.7730    2.8870    2.7120 C   0  0  0  0  0  0  0  0  0  0  0  0
   -0.0190   -0.7940    2.1090 H   0  0  0  0  0  0  0  0  0  0  0  0
   -1.2080    0.0010   -2.4300 H   0  0  0  0  0  0  0  0  0  0  0  0
    2.1560    1.3400    0.2210 H   0  0  0  0  0  0  0  0  0  0  0  0
    3.3090    1.0480   -4.2700 H   0  0  0  0  0  0  0  0  0  0  0  0
    1.0160    4.4590   -3.0070 H   0  0  0  0  0  0  0  0  0  0  0  0
    2.9270    5.9360   -3.5480 H   0  0  0  0  0  0  0  0  0  0  0  0
    2.3360   -0.4460    2.4320 H   0  0  0  0  0  0  0  0  0  0  0  0
    1.3820    0.9700    2.9370 H   0  0  0  0  0  0  0  0  0  0  0  0
   -1.9040   -2.1960    2.4840 H   0  0  0  0  0  0  0  0  0  0  0  0
   -3.1950   -1.4040   -2.2270 H   0  0  0  0  0  0  0  0  0  0  0  0
    5.4710    1.3010   -5.0460 H   0  0  0  0  0  0  0  0  0  0  0  0
    6.3920    2.6210   -4.2870 H   0  0  0  0  0  0  0  0  0  0  0  0
    5.7630    2.8120   -5.9410 H   0  0  0  0  0  0  0  0  0  0  0  0
    6.1660    4.6180   -4.9280 H   0  0  0  0  0  0  0  0  0  0  0  0
    5.6630    5.7510   -3.6500 H   0  0  0  0  0  0  0  0  0  0  0  0
    5.0340    5.9390   -5.3050 H   0  0  0  0  0  0  0  0  0  0  0  0
    2.4180    3.1720    3.1330 H   0  0  0  0  0  0  0  0  0  0  0  0
    4.7020   -0.1740    1.7140 H   0  0  0  0  0  0  0  0  0  0  0  0
   -4.5910   -2.8530   -0.7880 H   0  0  0  0  0  0  0  0  0  0  0  0
   -3.9470   -3.2480    1.5670 H   0  0  0  0  0  0  0  0  0  0  0  0
    4.5000    4.4740    3.4010 H   0  0  0  0  0  0  0  0  0  0  0  0
    6.7790    1.1350    1.9820 H   0  0  0  0  0  0  0  0  0  0  0  0
    6.6830    3.4560    2.8350 H   0  0  0  0  0  0  0  0  0  0  0  0
  1  3  1  0  0  0  0
  1  7  1  0  0  0  0
  1 11  2  0  0  0  0
  1 12  2  0  0  0  0
  2  3  2  0  0  0  0
  2  4  1  0  0  0  0
  2  6  1  0  0  0  0
  4  5  2  0  0  0  0
  4 10  1  0  0  0  0
  5  8  1  0  0  0  0
  5 31  1  0  0  0  0
  6  9  1  0  0  0  0
  6 32  1  0  0  0  0
  7 13  1  0  0  0  0
  7 16  2  0  0  0  0
  8  9  2  0  0  0  0
  8 20  1  0  0  0  0
  9 21  1  0  0  0  0
 10 18  1  0  0  0  0
 10 33  1  0  0  0  0
 13 14  2  0  0  0  0
 13 34  1  0  0  0  0
 14 15  1  0  0  0  0
 14 22  1  0  0  0  0
 15 17  2  0  0  0  0
 15 23  1  0  0  0  0
 16 17  1  0  0  0  0
 16 35  1  0  0  0  0
 17 36  1  0  0  0  0
 18 19  1  0  0  0  0
 18 37  1  0  0  0  0
 18 38  1  0  0  0  0
 19 24  2  0  0  0  0
 19 25  1  0  0  0  0
 20 27  2  0  0  0  0
 20 39  1  0  0  0  0
 21 26  2  0  0  0  0
 21 40  1  0  0  0  0
 22 41  1  0  0  0  0
 22 42  1  0  0  0  0
 22 43  1  0  0  0  0
 23 44  1  0  0  0  0
 23 45  1  0  0  0  0
 23 46  1  0  0  0  0
 24 28  1  0  0  0  0
 24 47  1  0  0  0  0
 25 29  2  0  0  0  0
 25 48  1  0  0  0  0
 26 27  1  0  0  0  0
 26 49  1  0  0  0  0
 27 50  1  0  0  0  0
 28 30  2  0  0  0  0
 28 51  1  0  0  0  0
 29 30  1  0  0  0  0
 29 52  1  0  0  0  0
 30 53  1  0  0  0  0
M  CHG  1   5   1
M  END
>  <$CLUSTER>
929

>  <INDEX>
609423

$$$$
Pharmeks PHAR090539
  MOE2020           3D

 42 44  0  0  0  0  0  0  0  0999 V2000
   -0.0410   -0.2270    0.1570 N   0  0  0  0  0  0  0  0  0  0  0  0
    0.1020   -1.5520   -0.3640 C   0  0  0  0  0  0  0  0  0  0  0  0
    0.1780   -1.7290   -1.7310 N   0  0  0  0  0  0  0  0  0  0  0  0
    0.0640    0.9480   -0.6270 C   0  0  0  0  0  0  0  0  0  0  0  0
    0.3960    0.6800   -2.0510 C   0  0  0  0  0  0  0  0  0  0  0  0
    0.3340   -0.7080   -2.4970 C   0  0  0  0  0  0  0  0  0  0  0  0
   -0.2980   -0.0760    1.5750 C   0  0  0  0  0  0  0  0  0  0  0  0
    0.7250    1.7200   -2.8250 C   0  0  0  0  0  0  0  0  0  0  0  0
    0.3090    0.9510    2.3180 C   0  0  0  0  0  0  0  0  0  0  0  0
    0.2090   -2.5380    0.3680 O   0  0  0  0  0  0  0  0  0  0  0  0
   -0.1470    2.0940   -0.2380 O   0  0  0  0  0  0  0  0  0  0  0  0
    0.0560    1.0940    3.6860 C   0  0  0  0  0  0  0  0  0  0  0  0
    1.0760    1.7730   -4.1380 N   0  0  0  0  0  0  0  0  0  0  0  0
   -1.1660   -0.9530    2.2490 C   0  0  0  0  0  0  0  0  0  0  0  0
   -0.8070    0.2160    4.3340 C   0  0  0  0  0  0  0  0  0  0  0  0
    1.7420    2.5810   -6.3030 C   0  0  0  0  0  0  0  0  0  0  0  0
   -1.4190   -0.8060    3.6160 C   0  0  0  0  0  0  0  0  0  0  0  0
    0.4280   -0.8870   -3.8320 O   0  0  0  0  0  0  0  0  0  0  0  0
    1.4190    2.8390   -4.9580 C   0  0  0  0  0  0  0  0  0  0  0  0
    2.0960    3.6130   -7.1760 C   0  0  0  0  0  0  0  0  0  0  0  0
    2.4090    3.4150   -8.4560 F   0  0  0  0  0  0  0  0  0  0  0  0
    1.8180    5.2050   -5.3940 C   0  0  0  0  0  0  0  0  0  0  0  0
    0.7210    2.1960    4.4460 C   0  0  0  0  0  0  0  0  0  0  0  0
   -1.0800    0.3660    5.7940 C   0  0  0  0  0  0  0  0  0  0  0  0
    1.4640    4.1710   -4.5200 C   0  0  0  0  0  0  0  0  0  0  0  0
    2.1330    4.9260   -6.7200 C   0  0  0  0  0  0  0  0  0  0  0  0
    0.7090    2.6770   -2.3240 H   0  0  0  0  0  0  0  0  0  0  0  0
    0.9800    1.6390    1.8260 H   0  0  0  0  0  0  0  0  0  0  0  0
    1.0890    0.8750   -4.5990 H   0  0  0  0  0  0  0  0  0  0  0  0
   -1.6440   -1.7520    1.7020 H   0  0  0  0  0  0  0  0  0  0  0  0
    1.7160    1.5650   -6.6680 H   0  0  0  0  0  0  0  0  0  0  0  0
   -2.0910   -1.4880    4.1160 H   0  0  0  0  0  0  0  0  0  0  0  0
    0.3690   -1.8000   -4.1240 H   0  0  0  0  0  0  0  0  0  0  0  0
    1.8470    6.2240   -5.0380 H   0  0  0  0  0  0  0  0  0  0  0  0
    1.3540    2.7720    3.7710 H   0  0  0  0  0  0  0  0  0  0  0  0
    1.3320    1.7710    5.2430 H   0  0  0  0  0  0  0  0  0  0  0  0
   -0.0380    2.8480    4.8790 H   0  0  0  0  0  0  0  0  0  0  0  0
   -1.7750   -0.4100    6.1150 H   0  0  0  0  0  0  0  0  0  0  0  0
   -1.5170    1.3470    5.9830 H   0  0  0  0  0  0  0  0  0  0  0  0
   -0.1470    0.2710    6.3500 H   0  0  0  0  0  0  0  0  0  0  0  0
    1.2220    4.4020   -3.4930 H   0  0  0  0  0  0  0  0  0  0  0  0
    2.4050    5.7260   -7.3930 H   0  0  0  0  0  0  0  0  0  0  0  0
  1  2  1  0  0  0  0
  1  4  1  0  0  0  0
  1  7  1  0  0  0  0
  2  3  1  0  0  0  0
  2 10  2  0  0  0  0
  3  6  2  0  0  0  0
  4  5  1  0  0  0  0
  4 11  2  0  0  0  0
  5  6  1  0  0  0  0
  5  8  2  0  0  0  0
  6 18  1  0  0  0  0
  7  9  1  0  0  0  0
  7 14  2  0  0  0  0
  8 13  1  0  0  0  0
  8 27  1  0  0  0  0
  9 12  2  0  0  0  0
  9 28  1  0  0  0  0
 12 15  1  0  0  0  0
 12 23  1  0  0  0  0
 13 19  1  0  0  0  0
 13 29  1  0  0  0  0
 14 17  1  0  0  0  0
 14 30  1  0  0  0  0
 15 17  2  0  0  0  0
 15 24  1  0  0  0  0
 16 19  1  0  0  0  0
 16 20  2  0  0  0  0
 16 31  1  0  0  0  0
 17 32  1  0  0  0  0
 18 33  1  0  0  0  0
 19 25  2  0  0  0  0
 20 21  1  0  0  0  0
 20 26  1  0  0  0  0
 22 25  1  0  0  0  0
 22 26  2  0  0  0  0
 22 34  1  0  0  0  0
 23 35  1  0  0  0  0
 23 36  1  0  0  0  0
 23 37  1  0  0  0  0
 24 38  1  0  0  0  0
 24 39  1  0  0  0  0
 24 40  1  0  0  0  0
 25 41  1  0  0  0  0
 26 42  1  0  0  0  0
M  END
>  <$CLUSTER>
930

>  <INDEX>
604586

$$$$
Pharmeks PHAR065513
  MOE2020           3D

 39 41  0  0  0  0  0  0  0  0999 V2000
    0.3640   -0.0500   -0.3710 C   0  0  0  0  0  0  0  0  0  0  0  0
    1.1110   -0.2660    0.6860 N   0  0  0  0  0  0  0  0  0  0  0  0
   -1.8440    0.3340    0.6080 C   0  0  0  0  0  0  0  0  0  0  0  0
   -1.3690    0.1610    1.8740 N   0  0  0  0  0  0  0  0  0  0  0  0
    1.1510   -0.1160   -1.8890 S   0  0  0  0  0  0  0  0  0  0  0  0
   -0.9840    0.2260   -0.4530 N   0  0  0  0  0  0  0  0  0  0  0  0
   -1.9830    0.2060    3.1410 C   0  0  0  0  0  0  0  0  0  0  0  0
    2.6260   -0.4620   -1.0840 C   0  0  0  0  0  0  0  0  0  0  0  0
    2.4090   -0.5020    0.2770 C   0  0  0  0  0  0  0  0  0  0  0  0
    3.9050   -0.6850   -1.6490 C   0  0  0  0  0  0  0  0  0  0  0  0
   -3.4640    0.6760    0.3520 S   0  0  0  0  0  0  0  0  0  0  0  0
   -1.1650   -0.0330    4.3050 C   0  0  0  0  0  0  0  0  0  0  0  0
   -3.2170    0.4500    3.1670 O   0  0  0  0  0  0  0  0  0  0  0  0
    3.5070   -0.7760    1.1400 C   0  0  0  0  0  0  0  0  0  0  0  0
    0.1940    0.2240    4.3330 C   0  0  0  0  0  0  0  0  0  0  0  0
   -1.8200   -0.5090    5.4540 C   0  0  0  0  0  0  0  0  0  0  0  0
    4.9690   -0.9520   -0.7830 C   0  0  0  0  0  0  0  0  0  0  0  0
    0.2860   -0.5010    6.6400 C   0  0  0  0  0  0  0  0  0  0  0  0
    4.7750   -0.9980    0.5930 C   0  0  0  0  0  0  0  0  0  0  0  0
    0.9230   -0.0140    5.5000 C   0  0  0  0  0  0  0  0  0  0  0  0
   -1.0860   -0.7460    6.6170 C   0  0  0  0  0  0  0  0  0  0  0  0
    6.1580   -1.1560   -1.3640 F   0  0  0  0  0  0  0  0  0  0  0  0
    1.1130   -0.6880    7.7260 O   0  0  0  0  0  0  0  0  0  0  0  0
    0.5130   -1.1820    8.9230 C   0  0  0  0  0  0  0  0  0  0  0  0
    1.6030   -1.3130    9.9730 C   0  0  0  0  0  0  0  0  0  0  0  0
   -0.3800   -0.0390    1.9110 H   0  0  0  0  0  0  0  0  0  0  0  0
   -1.3720    0.3600   -1.3760 H   0  0  0  0  0  0  0  0  0  0  0  0
    4.0540   -0.6500   -2.7180 H   0  0  0  0  0  0  0  0  0  0  0  0
    3.3620   -0.8120    2.2100 H   0  0  0  0  0  0  0  0  0  0  0  0
    0.6900    0.6080    3.4540 H   0  0  0  0  0  0  0  0  0  0  0  0
   -2.8850   -0.6900    5.4370 H   0  0  0  0  0  0  0  0  0  0  0  0
    5.6100   -1.2070    1.2450 H   0  0  0  0  0  0  0  0  0  0  0  0
    1.9850    0.1800    5.5190 H   0  0  0  0  0  0  0  0  0  0  0  0
   -1.5820   -1.1200    7.5010 H   0  0  0  0  0  0  0  0  0  0  0  0
    0.0600   -2.1560    8.7360 H   0  0  0  0  0  0  0  0  0  0  0  0
   -0.2520   -0.4860    9.2680 H   0  0  0  0  0  0  0  0  0  0  0  0
    2.3640   -2.0100    9.6220 H   0  0  0  0  0  0  0  0  0  0  0  0
    1.1700   -1.6860   10.9010 H   0  0  0  0  0  0  0  0  0  0  0  0
    2.0570   -0.3380   10.1490 H   0  0  0  0  0  0  0  0  0  0  0  0
  1  2  2  0  0  0  0
  1  5  1  0  0  0  0
  1  6  1  0  0  0  0
  2  9  1  0  0  0  0
  3  4  1  0  0  0  0
  3  6  1  0  0  0  0
  3 11  2  0  0  0  0
  4  7  1  0  0  0  0
  4 26  1  0  0  0  0
  5  8  1  0  0  0  0
  6 27  1  0  0  0  0
  7 12  1  0  0  0  0
  7 13  2  0  0  0  0
  8  9  2  0  0  0  0
  8 10  1  0  0  0  0
  9 14  1  0  0  0  0
 10 17  2  0  0  0  0
 10 28  1  0  0  0  0
 12 15  2  0  0  0  0
 12 16  1  0  0  0  0
 14 19  2  0  0  0  0
 14 29  1  0  0  0  0
 15 20  1  0  0  0  0
 15 30  1  0  0  0  0
 16 21  2  0  0  0  0
 16 31  1  0  0  0  0
 17 19  1  0  0  0  0
 17 22  1  0  0  0  0
 18 20  2  0  0  0  0
 18 21  1  0  0  0  0
 18 23  1  0  0  0  0
 19 32  1  0  0  0  0
 20 33  1  0  0  0  0
 21 34  1  0  0  0  0
 23 24  1  0  0  0  0
 24 25  1  0  0  0  0
 24 35  1  0  0  0  0
 24 36  1  0  0  0  0
 25 37  1  0  0  0  0
 25 38  1  0  0  0  0
 25 39  1  0  0  0  0
M  END
>  <$CLUSTER>
931

>  <INDEX>
600724

$$$$
Chem T&I PMOS-0027433
  MOE2020           3D

 53 57  0  0  0  0  0  0  0  0999 V2000
    4.7100    5.2160   -4.1210 N   0  0  0  0  0  0  0  0  0  0  0  0
    4.3450    4.9590   -2.8620 N   0  0  0  0  0  0  0  0  0  0  0  0
    4.3260    4.3880   -5.0960 N   0  0  0  0  0  0  0  0  0  0  0  0
    0.6460    0.0230    0.3080 C   0  0  0  0  0  0  0  0  0  0  0  0
    3.6440    3.8350   -3.0450 C   0  0  0  0  0  0  0  0  0  0  0  0
    3.6350    3.4930   -4.3960 C   0  0  0  0  0  0  0  0  0  0  0  0
    1.5020   -2.7060    2.6730 N   0  3  0  0  0  0  0  0  0  0  0  0
    1.4330    1.1220   -0.2760 C   0  0  0  0  0  0  0  0  0  0  0  0
   -0.6820   -0.2630   -0.0730 C   0  0  0  0  0  0  0  0  0  0  0  0
    2.9790    3.0360   -2.1090 C   0  0  0  0  0  0  0  0  0  0  0  0
    1.3490   -0.7850    1.2180 C   0  0  0  0  0  0  0  0  0  0  0  0
    2.2970    1.8860   -2.5190 C   0  0  0  0  0  0  0  0  0  0  0  0
    0.7520   -1.9220    1.7480 C   0  0  0  0  0  0  0  0  0  0  0  0
   -1.4530    0.5450   -0.9010 N   0  0  0  0  0  0  0  0  0  0  0  0
    1.6130    1.0400   -1.6370 N   0  0  0  0  0  0  0  0  0  0  0  0
    2.9600    2.3510   -4.8140 C   0  0  0  0  0  0  0  0  0  0  0  0
    2.2950    1.5520   -3.8820 C   0  0  0  0  0  0  0  0  0  0  0  0
   -1.2390   -1.4410    0.4710 C   0  0  0  0  0  0  0  0  0  0  0  0
    0.9150   -3.7060    3.1090 O   0  5  0  0  0  0  0  0  0  0  0  0
    5.5190    6.3880   -4.4240 C   0  0  0  0  0  0  0  0  0  0  0  0
    2.6540   -2.3810    2.9940 O   0  0  0  0  0  0  0  0  0  0  0  0
    1.9050    1.9940    0.4450 O   0  0  0  0  0  0  0  0  0  0  0  0
   -0.5400   -2.2570    1.3670 C   0  0  0  0  0  0  0  0  0  0  0  0
   -3.7570    1.9780   -1.5780 O   0  0  0  0  0  0  0  0  0  0  0  0
   -1.4060    1.9970   -0.8170 C   0  0  0  0  0  0  0  0  0  0  0  0
   -2.3780   -0.0540   -1.8520 C   0  0  0  0  0  0  0  0  0  0  0  0
   -3.7720    0.5490   -1.5670 C   0  0  0  0  0  0  0  0  0  0  0  0
   -2.8550    2.4840   -0.5910 C   0  0  0  0  0  0  0  0  0  0  0  0
    5.9170    7.2520   -3.3960 C   0  0  0  0  0  0  0  0  0  0  0  0
    5.9000    6.6550   -5.7460 C   0  0  0  0  0  0  0  0  0  0  0  0
    6.6760    7.7810   -6.0320 C   0  0  0  0  0  0  0  0  0  0  0  0
    6.6930    8.3750   -3.6920 C   0  0  0  0  0  0  0  0  0  0  0  0
    7.0720    8.6400   -5.0070 C   0  0  0  0  0  0  0  0  0  0  0  0
    2.9920    3.3090   -1.0640 H   0  0  0  0  0  0  0  0  0  0  0  0
    2.3560   -0.5210    1.5060 H   0  0  0  0  0  0  0  0  0  0  0  0
    1.1810    0.2380   -2.0720 H   0  0  0  0  0  0  0  0  0  0  0  0
    2.9500    2.0820   -5.8600 H   0  0  0  0  0  0  0  0  0  0  0  0
    1.7730    0.6670   -4.2140 H   0  0  0  0  0  0  0  0  0  0  0  0
   -2.2420   -1.7220    0.1850 H   0  0  0  0  0  0  0  0  0  0  0  0
   -1.0060   -3.1480    1.7620 H   0  0  0  0  0  0  0  0  0  0  0  0
   -1.0120    2.4130   -1.7440 H   0  0  0  0  0  0  0  0  0  0  0  0
   -0.7740    2.3030    0.0160 H   0  0  0  0  0  0  0  0  0  0  0  0
   -2.4040   -1.1360   -1.7190 H   0  0  0  0  0  0  0  0  0  0  0  0
   -2.0700    0.1790   -2.8710 H   0  0  0  0  0  0  0  0  0  0  0  0
   -4.4680    0.2000   -2.3300 H   0  0  0  0  0  0  0  0  0  0  0  0
   -4.1070    0.2090   -0.5870 H   0  0  0  0  0  0  0  0  0  0  0  0
   -3.1880    2.1500    0.3920 H   0  0  0  0  0  0  0  0  0  0  0  0
   -2.8690    3.5730   -0.6290 H   0  0  0  0  0  0  0  0  0  0  0  0
    5.6240    7.0500   -2.3760 H   0  0  0  0  0  0  0  0  0  0  0  0
    5.5940    5.9920   -6.5420 H   0  0  0  0  0  0  0  0  0  0  0  0
    6.9700    7.9870   -7.0500 H   0  0  0  0  0  0  0  0  0  0  0  0
    7.0010    9.0410   -2.8990 H   0  0  0  0  0  0  0  0  0  0  0  0
    7.6720    9.5100   -5.2320 H   0  0  0  0  0  0  0  0  0  0  0  0
  1  2  1  0  0  0  0
  1  3  1  0  0  0  0
  1 20  1  0  0  0  0
  2  5  2  0  0  0  0
  3  6  2  0  0  0  0
  4  8  1  0  0  0  0
  4  9  1  0  0  0  0
  4 11  2  0  0  0  0
  5  6  1  0  0  0  0
  5 10  1  0  0  0  0
  6 16  1  0  0  0  0
  7 13  1  0  0  0  0
  7 19  1  0  0  0  0
  7 21  2  0  0  0  0
  8 15  1  0  0  0  0
  8 22  2  0  0  0  0
  9 14  1  0  0  0  0
  9 18  2  0  0  0  0
 10 12  2  0  0  0  0
 10 34  1  0  0  0  0
 11 13  1  0  0  0  0
 11 35  1  0  0  0  0
 12 15  1  0  0  0  0
 12 17  1  0  0  0  0
 13 23  2  0  0  0  0
 14 25  1  0  0  0  0
 14 26  1  0  0  0  0
 15 36  1  0  0  0  0
 16 17  2  0  0  0  0
 16 37  1  0  0  0  0
 17 38  1  0  0  0  0
 18 23  1  0  0  0  0
 18 39  1  0  0  0  0
 20 29  1  0  0  0  0
 20 30  2  0  0  0  0
 23 40  1  0  0  0  0
 24 27  1  0  0  0  0
 24 28  1  0  0  0  0
 25 28  1  0  0  0  0
 25 41  1  0  0  0  0
 25 42  1  0  0  0  0
 26 27  1  0  0  0  0
 26 43  1  0  0  0  0
 26 44  1  0  0  0  0
 27 45  1  0  0  0  0
 27 46  1  0  0  0  0
 28 47  1  0  0  0  0
 28 48  1  0  0  0  0
 29 32  2  0  0  0  0
 29 49  1  0  0  0  0
 30 31  1  0  0  0  0
 30 50  1  0  0  0  0
 31 33  2  0  0  0  0
 31 51  1  0  0  0  0
 32 33  1  0  0  0  0
 32 52  1  0  0  0  0
 33 53  1  0  0  0  0
M  CHG  1   7   1
M  CHG  1  19  -1
M  END
>  <$CLUSTER>
932

>  <INDEX>
610791

$$$$
Chem T&I PMOS-0030169
  MOE2020           3D

 42 44  0  0  0  0  0  0  0  0999 V2000
   -0.2920    0.0540   -0.0590 C   0  0  0  0  0  0  0  0  0  0  0  0
    0.6730    1.0740    0.0780 C   0  0  0  0  0  0  0  0  0  0  0  0
    0.1540   -1.2330    0.3110 C   0  0  0  0  0  0  0  0  0  0  0  0
    1.9710    0.8370    0.5450 C   0  0  0  0  0  0  0  0  0  0  0  0
    1.4480   -1.4860    0.7790 C   0  0  0  0  0  0  0  0  0  0  0  0
    2.3600   -0.4470    0.8960 C   0  0  0  0  0  0  0  0  0  0  0  0
   -5.5070    1.5330   -0.8340 C   0  0  0  0  0  0  0  0  0  0  0  0
   -1.5830    0.2970   -0.5240 N   0  0  0  0  0  0  0  0  0  0  0  0
   -4.2690    1.2340   -0.3570 N   0  0  0  0  0  0  0  0  0  0  0  0
   -6.5770    0.4890   -0.6370 C   0  0  0  0  0  0  0  0  0  0  0  0
   -6.5110   -0.4310    0.4010 C   0  0  0  0  0  0  0  0  0  0  0  0
   -7.5270   -1.3780    0.5460 C   0  0  0  0  0  0  0  0  0  0  0  0
   -2.6490   -0.6830   -0.3570 C   0  0  0  0  0  0  0  0  0  0  0  0
   -1.9250    1.5430   -1.2000 C   0  0  0  0  0  0  0  0  0  0  0  0
   -3.1480    2.1650   -0.4880 C   0  0  0  0  0  0  0  0  0  0  0  0
   -3.8480    0.0110    0.3280 C   0  0  0  0  0  0  0  0  0  0  0  0
   -5.7930    2.5890   -1.4050 O   0  0  0  0  0  0  0  0  0  0  0  0
   -8.6020   -1.3970   -0.3420 C   0  0  0  0  0  0  0  0  0  0  0  0
   -0.6580   -2.2970    0.2050 F   0  0  0  0  0  0  0  0  0  0  0  0
    0.3700    2.3480   -0.2170 F   0  0  0  0  0  0  0  0  0  0  0  0
   -7.6540    0.4850   -1.5250 C   0  0  0  0  0  0  0  0  0  0  0  0
    2.8870    1.7980    0.6760 F   0  0  0  0  0  0  0  0  0  0  0  0
    1.7240   -2.7540    1.0920 F   0  0  0  0  0  0  0  0  0  0  0  0
    3.6080   -0.6000    1.3310 F   0  0  0  0  0  0  0  0  0  0  0  0
   -8.6660   -0.4650   -1.3750 C   0  0  0  0  0  0  0  0  0  0  0  0
   -7.4000   -2.5100    1.8470 Cl  0  0  0  0  0  0  0  0  0  0  0  0
   -9.5640   -2.3710   -0.1160 O   0  0  0  0  0  0  0  0  0  0  0  0
  -10.6750   -2.4140   -1.0030 C   0  0  0  0  0  0  0  0  0  0  0  0
   -5.6800   -0.4140    1.0910 H   0  0  0  0  0  0  0  0  0  0  0  0
   -2.2970   -1.5070    0.2640 H   0  0  0  0  0  0  0  0  0  0  0  0
   -2.9530   -1.0660   -1.3310 H   0  0  0  0  0  0  0  0  0  0  0  0
   -2.1700    1.3410   -2.2430 H   0  0  0  0  0  0  0  0  0  0  0  0
   -1.0810    2.2320   -1.1520 H   0  0  0  0  0  0  0  0  0  0  0  0
   -2.8440    2.4850    0.5090 H   0  0  0  0  0  0  0  0  0  0  0  0
   -3.4810    3.0300   -1.0610 H   0  0  0  0  0  0  0  0  0  0  0  0
   -4.6880   -0.6840    0.3460 H   0  0  0  0  0  0  0  0  0  0  0  0
   -3.5650    0.2650    1.3500 H   0  0  0  0  0  0  0  0  0  0  0  0
   -7.7040    1.2120   -2.3220 H   0  0  0  0  0  0  0  0  0  0  0  0
   -9.5000   -0.4770   -2.0610 H   0  0  0  0  0  0  0  0  0  0  0  0
  -11.3450   -3.2220   -0.7080 H   0  0  0  0  0  0  0  0  0  0  0  0
  -10.3220   -2.5880   -2.0190 H   0  0  0  0  0  0  0  0  0  0  0  0
  -11.2100   -1.4650   -0.9620 H   0  0  0  0  0  0  0  0  0  0  0  0
  1  2  2  0  0  0  0
  1  3  1  0  0  0  0
  1  8  1  0  0  0  0
  2  4  1  0  0  0  0
  2 20  1  0  0  0  0
  3  5  2  0  0  0  0
  3 19  1  0  0  0  0
  4  6  2  0  0  0  0
  4 22  1  0  0  0  0
  5  6  1  0  0  0  0
  5 23  1  0  0  0  0
  6 24  1  0  0  0  0
  7  9  1  0  0  0  0
  7 10  1  0  0  0  0
  7 17  2  0  0  0  0
  8 13  1  0  0  0  0
  8 14  1  0  0  0  0
  9 15  1  0  0  0  0
  9 16  1  0  0  0  0
 10 11  1  0  0  0  0
 10 21  2  0  0  0  0
 11 12  2  0  0  0  0
 11 29  1  0  0  0  0
 12 18  1  0  0  0  0
 12 26  1  0  0  0  0
 13 16  1  0  0  0  0
 13 30  1  0  0  0  0
 13 31  1  0  0  0  0
 14 15  1  0  0  0  0
 14 32  1  0  0  0  0
 14 33  1  0  0  0  0
 15 34  1  0  0  0  0
 15 35  1  0  0  0  0
 16 36  1  0  0  0  0
 16 37  1  0  0  0  0
 18 25  2  0  0  0  0
 18 27  1  0  0  0  0
 21 25  1  0  0  0  0
 21 38  1  0  0  0  0
 25 39  1  0  0  0  0
 27 28  1  0  0  0  0
 28 40  1  0  0  0  0
 28 41  1  0  0  0  0
 28 42  1  0  0  0  0
M  END
>  <$CLUSTER>
933

>  <INDEX>
610906

$$$$
Asinex ASN 06396448
  MOE2020           3D

 46 48  0  0  1  0  0  0  0  0999 V2000
    0.9450   -0.1350   -0.3520 C   0  0  0  0  0  0  0  0  0  0  0  0
   -0.2850   -0.5310    0.0800 O   0  0  0  0  0  0  0  0  0  0  0  0
   -1.3190    0.4720    0.1480 C   0  0  3  0  0  0  0  0  0  0  0  0
    1.8750   -1.3100   -0.3560 C   0  0  0  0  0  0  0  0  0  0  0  0
   -1.9640    0.6300   -1.2240 C   0  0  0  0  0  0  0  0  0  0  0  0
   -2.8210    1.6970   -1.2960 N   0  0  0  0  0  0  0  0  0  0  0  0
    3.1400   -1.0820   -0.7620 O   0  0  0  0  0  0  0  0  0  0  0  0
   -2.3390    0.0020    1.1780 C   0  0  0  0  0  0  0  0  0  0  0  0
    1.2690    0.9950   -0.6920 O   0  0  0  0  0  0  0  0  0  0  0  0
    1.6820   -2.6170   -0.0160 C   0  0  0  0  0  0  0  0  0  0  0  0
   -1.7040   -0.1030   -2.1760 O   0  0  0  0  0  0  0  0  0  0  0  0
    3.7810   -2.2760   -0.6810 C   0  0  0  0  0  0  0  0  0  0  0  0
    2.9280   -3.2530   -0.2260 C   0  0  0  0  0  0  0  0  0  0  0  0
   -2.7640    0.9180    2.1820 C   0  0  0  0  0  0  0  0  0  0  0  0
   -2.9170   -1.2670    1.1660 C   0  0  0  0  0  0  0  0  0  0  0  0
   -3.5550    2.0750   -2.4820 C   0  0  0  0  0  0  0  0  0  0  0  0
   -4.2630   -0.7400    3.1030 C   0  0  0  0  0  0  0  0  0  0  0  0
   -2.7300    2.9810   -3.3770 C   0  0  0  0  0  0  0  0  0  0  0  0
   -1.2130    4.6660   -5.0400 C   0  0  0  0  0  0  0  0  0  0  0  0
   -3.8650   -1.6430    2.1190 C   0  0  0  0  0  0  0  0  0  0  0  0
   -3.7130    0.5400    3.1330 C   0  0  0  0  0  0  0  0  0  0  0  0
   -5.4190   -1.2130    4.2580 Cl  0  0  0  0  0  0  0  0  0  0  0  0
   -2.0580    2.4640   -4.4980 C   0  0  0  0  0  0  0  0  0  0  0  0
   -2.6210    4.3540   -3.0980 C   0  0  0  0  0  0  0  0  0  0  0  0
   -1.3050    3.3040   -5.3250 C   0  0  0  0  0  0  0  0  0  0  0  0
   -1.8690    5.1910   -3.9260 C   0  0  0  0  0  0  0  0  0  0  0  0
   -0.4440    5.3840   -5.9240 O   0  0  0  0  0  0  0  0  0  0  0  0
   -0.3120    6.7790   -5.6770 C   0  0  0  0  0  0  0  0  0  0  0  0
   -0.9150    1.4410    0.4400 H   0  0  0  0  0  0  0  0  0  0  0  0
   -2.9480    2.2560   -0.4650 H   0  0  0  0  0  0  0  0  0  0  0  0
    0.7690   -3.0710    0.3390 H   0  0  0  0  0  0  0  0  0  0  0  0
    4.8180   -2.4360   -0.9380 H   0  0  0  0  0  0  0  0  0  0  0  0
    3.1620   -4.2950   -0.0620 H   0  0  0  0  0  0  0  0  0  0  0  0
   -2.3480    1.9140    2.2080 H   0  0  0  0  0  0  0  0  0  0  0  0
   -2.6250   -1.9740    0.4030 H   0  0  0  0  0  0  0  0  0  0  0  0
   -4.4630    2.6000   -2.1850 H   0  0  0  0  0  0  0  0  0  0  0  0
   -3.8210    1.1750   -3.0370 H   0  0  0  0  0  0  0  0  0  0  0  0
   -4.2910   -2.6350    2.0940 H   0  0  0  0  0  0  0  0  0  0  0  0
   -4.0220    1.2410    3.8940 H   0  0  0  0  0  0  0  0  0  0  0  0
   -2.1240    1.4100   -4.7230 H   0  0  0  0  0  0  0  0  0  0  0  0
   -3.1230    4.7660   -2.2350 H   0  0  0  0  0  0  0  0  0  0  0  0
   -0.7940    2.8970   -6.1850 H   0  0  0  0  0  0  0  0  0  0  0  0
   -1.7950    6.2450   -3.7040 H   0  0  0  0  0  0  0  0  0  0  0  0
    0.3180    7.2260   -6.4460 H   0  0  0  0  0  0  0  0  0  0  0  0
    0.1430    6.9330   -4.6990 H   0  0  0  0  0  0  0  0  0  0  0  0
   -1.2970    7.2460   -5.6970 H   0  0  0  0  0  0  0  0  0  0  0  0
  1  2  1  0  0  0  0
  1  4  1  0  0  0  0
  1  9  2  0  0  0  0
  2  3  1  0  0  0  0
  3  5  1  0  0  0  0
  3  8  1  0  0  0  0
  3 29  1  0  0  0  0
  4  7  1  0  0  0  0
  4 10  2  0  0  0  0
  5  6  1  0  0  0  0
  5 11  2  0  0  0  0
  6 16  1  0  0  0  0
  6 30  1  0  0  0  0
  7 12  1  0  0  0  0
  8 14  1  0  0  0  0
  8 15  2  0  0  0  0
 10 13  1  0  0  0  0
 10 31  1  0  0  0  0
 12 13  2  0  0  0  0
 12 32  1  0  0  0  0
 13 33  1  0  0  0  0
 14 21  2  0  0  0  0
 14 34  1  0  0  0  0
 15 20  1  0  0  0  0
 15 35  1  0  0  0  0
 16 18  1  0  0  0  0
 16 36  1  0  0  0  0
 16 37  1  0  0  0  0
 17 20  2  0  0  0  0
 17 21  1  0  0  0  0
 17 22  1  0  0  0  0
 18 23  2  0  0  0  0
 18 24  1  0  0  0  0
 19 25  2  0  0  0  0
 19 26  1  0  0  0  0
 19 27  1  0  0  0  0
 20 38  1  0  0  0  0
 21 39  1  0  0  0  0
 23 25  1  0  0  0  0
 23 40  1  0  0  0  0
 24 26  2  0  0  0  0
 24 41  1  0  0  0  0
 25 42  1  0  0  0  0
 26 43  1  0  0  0  0
 27 28  1  0  0  0  0
 28 44  1  0  0  0  0
 28 45  1  0  0  0  0
 28 46  1  0  0  0  0
M  END
>  <$CLUSTER>
934

>  <INDEX>
158544

$$$$
Pyxis Discovery PYX 00000172
  MOE2020           3D

 52 54  0  0  0  0  0  0  0  0999 V2000
   -0.8890    0.9430   -0.0830 C   0  0  0  0  0  0  0  0  0  0  0  0
    2.2710   -3.2560   -0.8640 C   0  0  0  0  0  0  0  0  0  0  0  0
    1.2230   -1.0820   -0.1890 N   0  3  0  0  0  0  0  0  0  0  0  0
    0.5820    1.2790    0.1990 C   0  0  0  0  0  0  0  0  0  0  0  0
   -0.9940   -0.3040   -0.9720 C   0  0  0  0  0  0  0  0  0  0  0  0
    3.0290   -4.3190   -0.4750 N   0  0  0  0  0  0  0  0  0  0  0  0
   -1.5980    2.1350   -0.7280 C   0  0  0  0  0  0  0  0  0  0  0  0
    2.0660   -2.2480    0.2510 C   0  0  0  0  0  0  0  0  0  0  0  0
    1.7950   -3.1080   -1.9870 O   0  0  0  0  0  0  0  0  0  0  0  0
   -0.2150   -1.4860   -0.4050 C   0  0  0  0  0  0  0  0  0  0  0  0
    1.3520    0.0860    0.7580 C   0  0  0  0  0  0  0  0  0  0  0  0
   -1.1550    2.6240   -1.9960 C   0  0  0  0  0  0  0  0  0  0  0  0
   -2.6840    2.7900   -0.1440 C   0  0  0  0  0  0  0  0  0  0  0  0
   -1.5270    0.6770    1.1690 O   0  0  0  0  0  0  0  0  0  0  0  0
   -2.8620    4.3330   -1.9980 C   0  0  0  0  0  0  0  0  0  0  0  0
   -3.3120    3.8750   -0.7630 C   0  0  0  0  0  0  0  0  0  0  0  0
   -1.7830    3.7070   -2.6150 C   0  0  0  0  0  0  0  0  0  0  0  0
   -3.5130    5.3700   -2.5230 F   0  0  0  0  0  0  0  0  0  0  0  0
    3.3870   -5.4340   -1.3530 C   0  0  0  0  0  0  0  0  0  0  0  0
    4.6650   -5.1120   -2.1220 C   0  0  0  0  0  0  0  0  0  0  0  0
    3.5390   -6.7250   -0.5570 C   0  0  0  0  0  0  0  0  0  0  0  0
    5.1070   -6.2730   -3.0070 C   0  0  0  0  0  0  0  0  0  0  0  0
    3.9740   -7.8910   -1.4330 C   0  0  0  0  0  0  0  0  0  0  0  0
    5.2490   -7.5630   -2.2050 C   0  0  0  0  0  0  0  0  0  0  0  0
    1.5760   -0.7730   -1.0830 H   0  0  0  0  0  0  0  0  0  0  0  0
    0.6230    2.0930    0.9230 H   0  0  0  0  0  0  0  0  0  0  0  0
    1.0540    1.5960   -0.7310 H   0  0  0  0  0  0  0  0  0  0  0  0
   -0.5990   -0.0650   -1.9590 H   0  0  0  0  0  0  0  0  0  0  0  0
   -2.0440   -0.5850   -1.0590 H   0  0  0  0  0  0  0  0  0  0  0  0
    3.3640   -4.3390    0.4770 H   0  0  0  0  0  0  0  0  0  0  0  0
    3.0390   -1.8770    0.5730 H   0  0  0  0  0  0  0  0  0  0  0  0
    1.5720   -2.7440    1.0870 H   0  0  0  0  0  0  0  0  0  0  0  0
   -0.6540   -1.7890    0.5460 H   0  0  0  0  0  0  0  0  0  0  0  0
   -0.2570   -2.3190   -1.1060 H   0  0  0  0  0  0  0  0  0  0  0  0
    2.4040    0.3510    0.8680 H   0  0  0  0  0  0  0  0  0  0  0  0
    0.9430   -0.1870    1.7310 H   0  0  0  0  0  0  0  0  0  0  0  0
   -0.3190    2.1470   -2.4850 H   0  0  0  0  0  0  0  0  0  0  0  0
   -3.0490    2.4490    0.8130 H   0  0  0  0  0  0  0  0  0  0  0  0
   -1.0790   -0.0710    1.5700 H   0  0  0  0  0  0  0  0  0  0  0  0
   -4.1490    4.3590   -0.2810 H   0  0  0  0  0  0  0  0  0  0  0  0
   -1.4310    4.0590   -3.5730 H   0  0  0  0  0  0  0  0  0  0  0  0
    2.5810   -5.5800   -2.0720 H   0  0  0  0  0  0  0  0  0  0  0  0
    5.4590   -4.8910   -1.4090 H   0  0  0  0  0  0  0  0  0  0  0  0
    4.4870   -4.2390   -2.7500 H   0  0  0  0  0  0  0  0  0  0  0  0
    2.5810   -6.9690   -0.0970 H   0  0  0  0  0  0  0  0  0  0  0  0
    4.2870   -6.5720    0.2210 H   0  0  0  0  0  0  0  0  0  0  0  0
    6.0690   -6.0290   -3.4580 H   0  0  0  0  0  0  0  0  0  0  0  0
    4.3650   -6.4230   -3.7910 H   0  0  0  0  0  0  0  0  0  0  0  0
    3.1780   -8.1170   -2.1430 H   0  0  0  0  0  0  0  0  0  0  0  0
    4.1560   -8.7600   -0.8010 H   0  0  0  0  0  0  0  0  0  0  0  0
    6.0710   -7.4510   -1.4980 H   0  0  0  0  0  0  0  0  0  0  0  0
    5.4680   -8.3820   -2.8900 H   0  0  0  0  0  0  0  0  0  0  0  0
  1  4  1  0  0  0  0
  1  5  1  0  0  0  0
  1  7  1  0  0  0  0
  1 14  1  0  0  0  0
  2  6  1  0  0  0  0
  2  8  1  0  0  0  0
  2  9  2  0  0  0  0
  3  8  1  0  0  0  0
  3 10  1  0  0  0  0
  3 11  1  0  0  0  0
  3 25  1  0  0  0  0
  4 11  1  0  0  0  0
  4 26  1  0  0  0  0
  4 27  1  0  0  0  0
  5 10  1  0  0  0  0
  5 28  1  0  0  0  0
  5 29  1  0  0  0  0
  6 19  1  0  0  0  0
  6 30  1  0  0  0  0
  7 12  1  0  0  0  0
  7 13  2  0  0  0  0
  8 31  1  0  0  0  0
  8 32  1  0  0  0  0
 10 33  1  0  0  0  0
 10 34  1  0  0  0  0
 11 35  1  0  0  0  0
 11 36  1  0  0  0  0
 12 17  2  0  0  0  0
 12 37  1  0  0  0  0
 13 16  1  0  0  0  0
 13 38  1  0  0  0  0
 14 39  1  0  0  0  0
 15 16  2  0  0  0  0
 15 17  1  0  0  0  0
 15 18  1  0  0  0  0
 16 40  1  0  0  0  0
 17 41  1  0  0  0  0
 19 20  1  0  0  0  0
 19 21  1  0  0  0  0
 19 42  1  0  0  0  0
 20 22  1  0  0  0  0
 20 43  1  0  0  0  0
 20 44  1  0  0  0  0
 21 23  1  0  0  0  0
 21 45  1  0  0  0  0
 21 46  1  0  0  0  0
 22 24  1  0  0  0  0
 22 47  1  0  0  0  0
 22 48  1  0  0  0  0
 23 24  1  0  0  0  0
 23 49  1  0  0  0  0
 23 50  1  0  0  0  0
 24 51  1  0  0  0  0
 24 52  1  0  0  0  0
M  CHG  1   3   1
M  END
>  <$CLUSTER>
935

>  <INDEX>
611698

$$$$
Pyxis Discovery PYX 00003095
  MOE2020           3D

 42 45  0  0  0  0  0  0  0  0999 V2000
   -1.6610    0.0960    0.2390 C   0  0  0  0  0  0  0  0  0  0  0  0
   -0.3810    0.6150    0.3490 C   0  0  0  0  0  0  0  0  0  0  0  0
   -2.0820   -1.1390   -0.3950 C   0  0  0  0  0  0  0  0  0  0  0  0
   -4.0010   -5.5990   -2.6070 N   0  0  0  0  0  0  0  0  0  0  0  0
   -2.5620    0.9700    0.8180 N   0  0  0  0  0  0  0  0  0  0  0  0
   -6.7030   -5.5830   -1.9420 N   0  0  0  0  0  0  0  0  0  0  0  0
   -4.5350   -4.5880   -1.8720 C   0  0  0  0  0  0  0  0  0  0  0  0
   -3.4230   -1.4130   -0.2390 N   0  0  0  0  0  0  0  0  0  0  0  0
   -5.8880   -4.5840   -1.5410 C   0  0  0  0  0  0  0  0  0  0  0  0
   -1.8110    1.9630    1.2290 C   0  0  0  0  0  0  0  0  0  0  0  0
   -4.8300   -6.5850   -2.9970 C   0  0  0  0  0  0  0  0  0  0  0  0
   -6.1610   -6.5770   -2.6700 C   0  0  0  0  0  0  0  0  0  0  0  0
   -0.4840    1.8290    0.9800 O   0  0  0  0  0  0  0  0  0  0  0  0
   -3.7000   -3.5480   -1.4500 C   0  0  0  0  0  0  0  0  0  0  0  0
    0.9710    0.2090    0.0010 C   0  0  0  0  0  0  0  0  0  0  0  0
   -4.2150   -2.4920   -0.6920 C   0  0  0  0  0  0  0  0  0  0  0  0
   -1.3230   -1.8720   -1.0230 O   0  0  0  0  0  0  0  0  0  0  0  0
   -6.4110   -3.5380   -0.7880 C   0  0  0  0  0  0  0  0  0  0  0  0
    1.4150   -1.0970    0.2460 C   0  0  0  0  0  0  0  0  0  0  0  0
    1.8640    1.1290   -0.5690 C   0  0  0  0  0  0  0  0  0  0  0  0
   -5.5800   -2.4980   -0.3660 C   0  0  0  0  0  0  0  0  0  0  0  0
    3.5930   -0.5580   -0.6550 C   0  0  0  0  0  0  0  0  0  0  0  0
    2.7180   -1.4780   -0.0830 C   0  0  0  0  0  0  0  0  0  0  0  0
    3.1670    0.7460   -0.8970 C   0  0  0  0  0  0  0  0  0  0  0  0
    4.8180   -0.9990   -0.9420 F   0  0  0  0  0  0  0  0  0  0  0  0
   -7.0550   -7.6820   -3.1150 C   0  0  0  0  0  0  0  0  0  0  0  0
   -4.2570   -7.6990   -3.8030 C   0  0  0  0  0  0  0  0  0  0  0  0
   -3.9300   -0.7200    0.2930 H   0  0  0  0  0  0  0  0  0  0  0  0
   -2.2200    2.8270    1.7310 H   0  0  0  0  0  0  0  0  0  0  0  0
   -2.6520   -3.5610   -1.7110 H   0  0  0  0  0  0  0  0  0  0  0  0
   -7.4600   -3.5300   -0.5300 H   0  0  0  0  0  0  0  0  0  0  0  0
    0.7440   -1.8150    0.6930 H   0  0  0  0  0  0  0  0  0  0  0  0
    1.5410    2.1430   -0.7560 H   0  0  0  0  0  0  0  0  0  0  0  0
   -5.9930   -1.6890    0.2180 H   0  0  0  0  0  0  0  0  0  0  0  0
    3.0480   -2.4890    0.1070 H   0  0  0  0  0  0  0  0  0  0  0  0
    3.8450    1.4620   -1.3390 H   0  0  0  0  0  0  0  0  0  0  0  0
   -8.0680   -7.4960   -2.7580 H   0  0  0  0  0  0  0  0  0  0  0  0
   -6.6950   -8.6270   -2.7090 H   0  0  0  0  0  0  0  0  0  0  0  0
   -7.0570   -7.7320   -4.2040 H   0  0  0  0  0  0  0  0  0  0  0  0
   -3.1920   -7.5260   -3.9570 H   0  0  0  0  0  0  0  0  0  0  0  0
   -4.7610   -7.7460   -4.7680 H   0  0  0  0  0  0  0  0  0  0  0  0
   -4.3990   -8.6410   -3.2730 H   0  0  0  0  0  0  0  0  0  0  0  0
  1  2  2  0  0  0  0
  1  3  1  0  0  0  0
  1  5  1  0  0  0  0
  2 13  1  0  0  0  0
  2 15  1  0  0  0  0
  3  8  1  0  0  0  0
  3 17  2  0  0  0  0
  4  7  1  0  0  0  0
  4 11  2  0  0  0  0
  5 10  2  0  0  0  0
  6  9  1  0  0  0  0
  6 12  2  0  0  0  0
  7  9  1  0  0  0  0
  7 14  2  0  0  0  0
  8 16  1  0  0  0  0
  8 28  1  0  0  0  0
  9 18  2  0  0  0  0
 10 13  1  0  0  0  0
 10 29  1  0  0  0  0
 11 12  1  0  0  0  0
 11 27  1  0  0  0  0
 12 26  1  0  0  0  0
 14 16  1  0  0  0  0
 14 30  1  0  0  0  0
 15 19  2  0  0  0  0
 15 20  1  0  0  0  0
 16 21  2  0  0  0  0
 18 21  1  0  0  0  0
 18 31  1  0  0  0  0
 19 23  1  0  0  0  0
 19 32  1  0  0  0  0
 20 24  2  0  0  0  0
 20 33  1  0  0  0  0
 21 34  1  0  0  0  0
 22 23  2  0  0  0  0
 22 24  1  0  0  0  0
 22 25  1  0  0  0  0
 23 35  1  0  0  0  0
 24 36  1  0  0  0  0
 26 37  1  0  0  0  0
 26 38  1  0  0  0  0
 26 39  1  0  0  0  0
 27 40  1  0  0  0  0
 27 41  1  0  0  0  0
 27 42  1  0  0  0  0
M  END
>  <$CLUSTER>
936

>  <INDEX>
614074

$$$$
Asinex ASN 06916822
  MOE2020           3D

 55 58  0  0  0  0  0  0  0  0999 V2000
    0.1180   -0.1790    0.3680 C   0  0  0  0  0  0  0  0  0  0  0  0
   -1.0080    0.5880    0.3250 N   0  0  0  0  0  0  0  0  0  0  0  0
    0.0820   -0.8810   -0.8240 C   0  0  0  0  0  0  0  0  0  0  0  0
    1.0570   -0.2510    1.3240 N   0  0  0  0  0  0  0  0  0  0  0  0
   -1.6990    0.3780   -0.8150 N   0  0  0  0  0  0  0  0  0  0  0  0
   -1.0340   -0.5270   -1.5290 N   0  0  0  0  0  0  0  0  0  0  0  0
    2.1110   -1.8900   -0.1470 N   0  0  0  0  0  0  0  0  0  0  0  0
    2.0170   -1.1370    0.9760 C   0  0  0  0  0  0  0  0  0  0  0  0
    1.1260   -1.7640   -1.0700 C   0  0  0  0  0  0  0  0  0  0  0  0
    5.6660   -2.5300    2.8760 N   0  0  0  0  0  0  0  0  0  0  0  0
    6.7640   -3.3160    2.6920 C   0  0  0  0  0  0  0  0  0  0  0  0
   -1.4880    1.5280    1.3110 C   0  0  0  0  0  0  0  0  0  0  0  0
    3.1630   -1.3030    2.0180 C   0  0  0  0  0  0  0  0  0  0  0  0
    5.6390   -1.1340    2.4280 C   0  0  0  0  0  0  0  0  0  0  0  0
    4.3990   -2.9060    3.5100 C   0  0  0  0  0  0  0  0  0  0  0  0
    7.8040   -2.9360    2.1480 O   0  0  0  0  0  0  0  0  0  0  0  0
    3.2190   -2.7300    2.5660 C   0  0  0  0  0  0  0  0  0  0  0  0
    4.5120   -0.8810    1.4360 C   0  0  0  0  0  0  0  0  0  0  0  0
    1.1870   -2.4930   -2.1950 O   0  0  0  0  0  0  0  0  0  0  0  0
   -1.0100    2.9430    1.0360 C   0  0  0  0  0  0  0  0  0  0  0  0
   -0.1130    5.5530    0.5180 C   0  0  0  0  0  0  0  0  0  0  0  0
   -1.8460    3.8680    0.3930 C   0  0  0  0  0  0  0  0  0  0  0  0
    0.2870    3.3360    1.4000 C   0  0  0  0  0  0  0  0  0  0  0  0
   -1.4000    5.1680    0.1390 C   0  0  0  0  0  0  0  0  0  0  0  0
    0.7310    4.6370    1.1460 C   0  0  0  0  0  0  0  0  0  0  0  0
    6.6710   -4.7340    3.1960 C   0  0  0  0  0  0  0  0  0  0  0  0
    0.3620    6.9430    0.2530 C   0  0  0  0  0  0  0  0  0  0  0  0
    7.8730   -5.5810    2.9880 C   0  0  0  0  0  0  0  0  0  0  0  0
    7.7380   -6.9860    3.5050 C   0  0  0  0  0  0  0  0  0  0  0  0
   -1.1280    1.2210    2.2930 H   0  0  0  0  0  0  0  0  0  0  0  0
   -2.5780    1.5180    1.3040 H   0  0  0  0  0  0  0  0  0  0  0  0
    2.9410   -0.6380    2.8530 H   0  0  0  0  0  0  0  0  0  0  0  0
    6.5900   -0.8980    1.9500 H   0  0  0  0  0  0  0  0  0  0  0  0
    5.4980   -0.4880    3.2940 H   0  0  0  0  0  0  0  0  0  0  0  0
    4.2450   -2.2790    4.3880 H   0  0  0  0  0  0  0  0  0  0  0  0
    4.4540   -3.9510    3.8150 H   0  0  0  0  0  0  0  0  0  0  0  0
    3.3210   -3.4270    1.7340 H   0  0  0  0  0  0  0  0  0  0  0  0
    2.2960   -2.9410    3.1060 H   0  0  0  0  0  0  0  0  0  0  0  0
    4.4800    0.1820    1.1970 H   0  0  0  0  0  0  0  0  0  0  0  0
    4.7020   -1.4520    0.5270 H   0  0  0  0  0  0  0  0  0  0  0  0
    1.9510   -3.0700   -2.2640 H   0  0  0  0  0  0  0  0  0  0  0  0
   -2.8410    3.5740    0.0920 H   0  0  0  0  0  0  0  0  0  0  0  0
    0.9470    2.6280    1.8800 H   0  0  0  0  0  0  0  0  0  0  0  0
   -2.0520    5.8760   -0.3510 H   0  0  0  0  0  0  0  0  0  0  0  0
    1.7280    4.9330    1.4360 H   0  0  0  0  0  0  0  0  0  0  0  0
    5.8340   -5.2140    2.6890 H   0  0  0  0  0  0  0  0  0  0  0  0
    6.4730   -4.6950    4.2670 H   0  0  0  0  0  0  0  0  0  0  0  0
   -0.4280    7.5090   -0.2400 H   0  0  0  0  0  0  0  0  0  0  0  0
    1.2410    6.9100   -0.3900 H   0  0  0  0  0  0  0  0  0  0  0  0
    0.6200    7.4250    1.1960 H   0  0  0  0  0  0  0  0  0  0  0  0
    8.7140   -5.1100    3.4960 H   0  0  0  0  0  0  0  0  0  0  0  0
    8.0750   -5.6290    1.9180 H   0  0  0  0  0  0  0  0  0  0  0  0
    7.5350   -6.9610    4.5760 H   0  0  0  0  0  0  0  0  0  0  0  0
    8.6650   -7.5310    3.3240 H   0  0  0  0  0  0  0  0  0  0  0  0
    6.9170   -7.4850    2.9910 H   0  0  0  0  0  0  0  0  0  0  0  0
  1  2  1  0  0  0  0
  1  3  1  0  0  0  0
  1  4  2  0  0  0  0
  2  5  1  0  0  0  0
  2 12  1  0  0  0  0
  3  6  1  0  0  0  0
  3  9  2  0  0  0  0
  4  8  1  0  0  0  0
  5  6  2  0  0  0  0
  7  8  2  0  0  0  0
  7  9  1  0  0  0  0
  8 13  1  0  0  0  0
  9 19  1  0  0  0  0
 10 11  1  0  0  0  0
 10 14  1  0  0  0  0
 10 15  1  0  0  0  0
 11 16  2  0  0  0  0
 11 26  1  0  0  0  0
 12 20  1  0  0  0  0
 12 30  1  0  0  0  0
 12 31  1  0  0  0  0
 13 17  1  0  0  0  0
 13 18  1  0  0  0  0
 13 32  1  0  0  0  0
 14 18  1  0  0  0  0
 14 33  1  0  0  0  0
 14 34  1  0  0  0  0
 15 17  1  0  0  0  0
 15 35  1  0  0  0  0
 15 36  1  0  0  0  0
 17 37  1  0  0  0  0
 17 38  1  0  0  0  0
 18 39  1  0  0  0  0
 18 40  1  0  0  0  0
 19 41  1  0  0  0  0
 20 22  2  0  0  0  0
 20 23  1  0  0  0  0
 21 24  2  0  0  0  0
 21 25  1  0  0  0  0
 21 27  1  0  0  0  0
 22 24  1  0  0  0  0
 22 42  1  0  0  0  0
 23 25  2  0  0  0  0
 23 43  1  0  0  0  0
 24 44  1  0  0  0  0
 25 45  1  0  0  0  0
 26 28  1  0  0  0  0
 26 46  1  0  0  0  0
 26 47  1  0  0  0  0
 27 48  1  0  0  0  0
 27 49  1  0  0  0  0
 27 50  1  0  0  0  0
 28 29  1  0  0  0  0
 28 51  1  0  0  0  0
 28 52  1  0  0  0  0
 29 53  1  0  0  0  0
 29 54  1  0  0  0  0
 29 55  1  0  0  0  0
M  END
>  <$CLUSTER>
937

>  <INDEX>
164267

$$$$
Pyxis Discovery PYX 00004219
  MOE2020           3D

 52 55  0  0  1  0  0  0  0  0999 V2000
    2.0480    1.0200   -2.2950 N   0  0  0  0  0  0  0  0  0  0  0  0
    2.0940    0.1380   -1.3410 C   0  0  0  0  0  0  0  0  0  0  0  0
    3.2970    0.8770   -2.8250 C   0  0  0  0  0  0  0  0  0  0  0  0
   -0.4340    0.6700    1.4780 N   0  0  0  0  0  0  0  0  0  0  0  0
    4.0750   -0.0360   -2.2380 N   0  0  0  0  0  0  0  0  0  0  0  0
   -0.2500    0.8050    2.8250 C   0  0  0  0  0  0  0  0  0  0  0  0
    3.2520   -0.5390   -1.2250 O   0  0  0  0  0  0  0  0  0  0  0  0
    1.0020   -0.2230   -0.3360 C   0  0  3  0  0  0  0  0  0  0  0  0
    0.6330    0.9910    0.5280 C   0  0  0  0  0  0  0  0  0  0  0  0
   -1.4190    0.4440    3.7060 C   0  0  0  0  0  0  0  0  0  0  0  0
    3.7290    1.6970   -3.9750 C   0  0  0  0  0  0  0  0  0  0  0  0
    2.8550    2.6380   -4.5400 C   0  0  0  0  0  0  0  0  0  0  0  0
    3.2560    3.4180   -5.6280 C   0  0  0  0  0  0  0  0  0  0  0  0
    0.7980    1.1960    3.3450 O   0  0  0  0  0  0  0  0  0  0  0  0
    4.5330    3.2680   -6.1640 C   0  0  0  0  0  0  0  0  0  0  0  0
   -2.3850   -0.4640    3.2930 C   0  0  0  0  0  0  0  0  0  0  0  0
    5.0120    1.5560   -4.5250 C   0  0  0  0  0  0  0  0  0  0  0  0
    5.4100    2.3380   -5.6130 C   0  0  0  0  0  0  0  0  0  0  0  0
   -1.6430    0.2130    0.7930 C   0  0  0  0  0  0  0  0  0  0  0  0
   -3.4500   -0.7700    4.1440 C   0  0  0  0  0  0  0  0  0  0  0  0
    2.4500    4.3630   -6.2340 O   0  0  0  0  0  0  0  0  0  0  0  0
   -4.4210   -1.6280    3.8250 F   0  0  0  0  0  0  0  0  0  0  0  0
   -0.2390   -0.7680   -1.0550 C   0  0  0  0  0  0  0  0  0  0  0  0
    4.8380    4.0790   -7.2340 O   0  0  0  0  0  0  0  0  0  0  0  0
   -1.4940    1.0400    4.9640 C   0  0  0  0  0  0  0  0  0  0  0  0
   -1.3670   -1.0230   -0.0600 C   0  0  0  0  0  0  0  0  0  0  0  0
   -2.5600    0.7310    5.8110 C   0  0  0  0  0  0  0  0  0  0  0  0
   -3.5390   -0.1720    5.4000 C   0  0  0  0  0  0  0  0  0  0  0  0
    1.1380    4.5450   -5.7130 C   0  0  0  0  0  0  0  0  0  0  0  0
    6.1350    3.9500   -7.8050 C   0  0  0  0  0  0  0  0  0  0  0  0
    1.3900   -1.0030    0.3190 H   0  0  0  0  0  0  0  0  0  0  0  0
    1.5150    1.3130    1.0820 H   0  0  0  0  0  0  0  0  0  0  0  0
    0.2970    1.7990   -0.1220 H   0  0  0  0  0  0  0  0  0  0  0  0
    1.8630    2.7610   -4.1300 H   0  0  0  0  0  0  0  0  0  0  0  0
   -2.3140   -0.9300    2.3210 H   0  0  0  0  0  0  0  0  0  0  0  0
    5.6990    0.8370   -4.1040 H   0  0  0  0  0  0  0  0  0  0  0  0
    6.4000    2.2200   -6.0270 H   0  0  0  0  0  0  0  0  0  0  0  0
   -2.0100    1.0130    0.1500 H   0  0  0  0  0  0  0  0  0  0  0  0
   -2.4010   -0.0320    1.5370 H   0  0  0  0  0  0  0  0  0  0  0  0
    0.0170   -1.7030   -1.5530 H   0  0  0  0  0  0  0  0  0  0  0  0
   -0.5720   -0.0410   -1.7960 H   0  0  0  0  0  0  0  0  0  0  0  0
   -0.7320    1.7370    5.2810 H   0  0  0  0  0  0  0  0  0  0  0  0
   -2.2720   -1.2860   -0.6080 H   0  0  0  0  0  0  0  0  0  0  0  0
   -1.0850   -1.8490    0.5930 H   0  0  0  0  0  0  0  0  0  0  0  0
   -2.6260    1.1920    6.7850 H   0  0  0  0  0  0  0  0  0  0  0  0
   -4.3660   -0.4080    6.0540 H   0  0  0  0  0  0  0  0  0  0  0  0
    0.6230    5.3160   -6.2860 H   0  0  0  0  0  0  0  0  0  0  0  0
    1.2010    4.8500   -4.6680 H   0  0  0  0  0  0  0  0  0  0  0  0
    0.5850    3.6080   -5.7850 H   0  0  0  0  0  0  0  0  0  0  0  0
    6.2370    4.6470   -8.6370 H   0  0  0  0  0  0  0  0  0  0  0  0
    6.2730    2.9310   -8.1660 H   0  0  0  0  0  0  0  0  0  0  0  0
    6.8880    4.1730   -7.0500 H   0  0  0  0  0  0  0  0  0  0  0  0
  1  2  2  0  0  0  0
  1  3  1  0  0  0  0
  2  7  1  0  0  0  0
  2  8  1  0  0  0  0
  3  5  2  0  0  0  0
  3 11  1  0  0  0  0
  4  6  1  0  0  0  0
  4  9  1  0  0  0  0
  4 19  1  0  0  0  0
  5  7  1  0  0  0  0
  6 10  1  0  0  0  0
  6 14  2  0  0  0  0
  8  9  1  0  0  0  0
  8 23  1  0  0  0  0
  8 31  1  0  0  0  0
  9 32  1  0  0  0  0
  9 33  1  0  0  0  0
 10 16  2  0  0  0  0
 10 25  1  0  0  0  0
 11 12  1  0  0  0  0
 11 17  2  0  0  0  0
 12 13  2  0  0  0  0
 12 34  1  0  0  0  0
 13 15  1  0  0  0  0
 13 21  1  0  0  0  0
 15 18  2  0  0  0  0
 15 24  1  0  0  0  0
 16 20  1  0  0  0  0
 16 35  1  0  0  0  0
 17 18  1  0  0  0  0
 17 36  1  0  0  0  0
 18 37  1  0  0  0  0
 19 26  1  0  0  0  0
 19 38  1  0  0  0  0
 19 39  1  0  0  0  0
 20 22  1  0  0  0  0
 20 28  2  0  0  0  0
 21 29  1  0  0  0  0
 23 26  1  0  0  0  0
 23 40  1  0  0  0  0
 23 41  1  0  0  0  0
 24 30  1  0  0  0  0
 25 27  2  0  0  0  0
 25 42  1  0  0  0  0
 26 43  1  0  0  0  0
 26 44  1  0  0  0  0
 27 28  1  0  0  0  0
 27 45  1  0  0  0  0
 28 46  1  0  0  0  0
 29 47  1  0  0  0  0
 29 48  1  0  0  0  0
 29 49  1  0  0  0  0
 30 50  1  0  0  0  0
 30 51  1  0  0  0  0
 30 52  1  0  0  0  0
M  END
>  <$CLUSTER>
938

>  <INDEX>
615056

$$$$
Asinex ASN 09961559
  MOE2020           3D

 52 55  0  0  0  0  0  0  0  0999 V2000
   -0.5080   -0.9980   -0.0200 N   0  0  0  0  0  0  0  0  0  0  0  0
    4.1770    5.0520   -0.3960 C   0  0  0  0  0  0  0  0  0  0  0  0
    3.6430    3.8580   -0.5210 N   0  0  0  0  0  0  0  0  0  0  0  0
   -1.8530   -1.3230    0.0770 C   0  0  0  0  0  0  0  0  0  0  0  0
    5.4510    5.3470   -0.8720 N   0  0  0  0  0  0  0  0  0  0  0  0
    0.0400    0.2990    0.0160 C   0  0  0  0  0  0  0  0  0  0  0  0
    2.3750    3.8590    0.0390 C   0  0  0  0  0  0  0  0  0  0  0  0
    6.1100    6.5660   -0.7930 C   0  0  0  0  0  0  0  0  0  0  0  0
    3.2190    6.2340    0.3920 S   0  0  0  0  0  0  0  0  0  0  0  0
    1.4250    0.2390   -0.1100 C   0  0  0  0  0  0  0  0  0  0  0  0
    1.9780    5.0630    0.5900 C   0  0  0  0  0  0  0  0  0  0  0  0
    0.6030   -1.9620   -0.1800 C   0  0  0  0  0  0  0  0  0  0  0  0
    1.5570    2.6270    0.0340 C   0  0  0  0  0  0  0  0  0  0  0  0
    2.2010    1.3950   -0.1030 C   0  0  0  0  0  0  0  0  0  0  0  0
   -0.6050    1.5160    0.1520 C   0  0  0  0  0  0  0  0  0  0  0  0
   -2.7690   -0.5130    0.2100 O   0  0  0  0  0  0  0  0  0  0  0  0
    1.9100   -1.1660   -0.2440 C   0  0  0  0  0  0  0  0  0  0  0  0
    5.7170    7.6170   -0.2960 O   0  0  0  0  0  0  0  0  0  0  0  0
    0.1630    2.6870    0.1600 C   0  0  0  0  0  0  0  0  0  0  0  0
    7.4760    6.4810   -1.4280 C   0  0  0  0  0  0  0  0  0  0  0  0
   -2.1640   -2.8020    0.0080 C   0  0  0  0  0  0  0  0  0  0  0  0
    8.4490    5.6490   -0.5690 C   0  0  0  0  0  0  0  0  0  0  0  0
    8.0940    7.8690   -1.6830 C   0  0  0  0  0  0  0  0  0  0  0  0
   -1.9100   -3.3310   -1.4180 C   0  0  0  0  0  0  0  0  0  0  0  0
   -3.5580   -3.1500    0.4660 C   0  0  0  0  0  0  0  0  0  0  0  0
    9.8120    6.1170   -1.1870 C   0  0  0  0  0  0  0  0  0  0  0  0
    9.5910    7.4680   -1.8630 C   0  0  0  0  0  0  0  0  0  0  0  0
    5.9490    4.5930   -1.3230 H   0  0  0  0  0  0  0  0  0  0  0  0
    1.0290    5.2410    1.0730 H   0  0  0  0  0  0  0  0  0  0  0  0
    0.4700   -2.5310   -1.1000 H   0  0  0  0  0  0  0  0  0  0  0  0
    0.6260   -2.6450    0.6690 H   0  0  0  0  0  0  0  0  0  0  0  0
    3.2750    1.3400   -0.2010 H   0  0  0  0  0  0  0  0  0  0  0  0
   -1.6800    1.5620    0.2500 H   0  0  0  0  0  0  0  0  0  0  0  0
    2.5780   -1.4340    0.5750 H   0  0  0  0  0  0  0  0  0  0  0  0
    2.4210   -1.3200   -1.1940 H   0  0  0  0  0  0  0  0  0  0  0  0
   -0.3240    3.6450    0.2640 H   0  0  0  0  0  0  0  0  0  0  0  0
    7.3260    5.9870   -2.3880 H   0  0  0  0  0  0  0  0  0  0  0  0
   -1.4890   -3.2940    0.7090 H   0  0  0  0  0  0  0  0  0  0  0  0
    8.2910    4.5780   -0.6980 H   0  0  0  0  0  0  0  0  0  0  0  0
    8.3750    5.9020    0.4890 H   0  0  0  0  0  0  0  0  0  0  0  0
    7.9530    8.5370   -0.8330 H   0  0  0  0  0  0  0  0  0  0  0  0
    7.6890    8.3340   -2.5820 H   0  0  0  0  0  0  0  0  0  0  0  0
   -2.5870   -2.8370   -2.1150 H   0  0  0  0  0  0  0  0  0  0  0  0
   -2.0850   -4.4070   -1.4430 H   0  0  0  0  0  0  0  0  0  0  0  0
   -0.8790   -3.1240   -1.7040 H   0  0  0  0  0  0  0  0  0  0  0  0
   -4.2860   -2.6850   -0.1990 H   0  0  0  0  0  0  0  0  0  0  0  0
   -3.7080   -2.7850    1.4820 H   0  0  0  0  0  0  0  0  0  0  0  0
   -3.6870   -4.2320    0.4460 H   0  0  0  0  0  0  0  0  0  0  0  0
   10.1530    5.3880   -1.9220 H   0  0  0  0  0  0  0  0  0  0  0  0
   10.5590    6.2160   -0.4000 H   0  0  0  0  0  0  0  0  0  0  0  0
   10.2320    8.2200   -1.4020 H   0  0  0  0  0  0  0  0  0  0  0  0
    9.8270    7.3920   -2.9240 H   0  0  0  0  0  0  0  0  0  0  0  0
  1  4  1  0  0  0  0
  1  6  1  0  0  0  0
  1 12  1  0  0  0  0
  2  3  2  0  0  0  0
  2  5  1  0  0  0  0
  2  9  1  0  0  0  0
  3  7  1  0  0  0  0
  4 16  2  0  0  0  0
  4 21  1  0  0  0  0
  5  8  1  0  0  0  0
  5 28  1  0  0  0  0
  6 10  1  0  0  0  0
  6 15  2  0  0  0  0
  7 11  2  0  0  0  0
  7 13  1  0  0  0  0
  8 18  2  0  0  0  0
  8 20  1  0  0  0  0
  9 11  1  0  0  0  0
 10 14  2  0  0  0  0
 10 17  1  0  0  0  0
 11 29  1  0  0  0  0
 12 17  1  0  0  0  0
 12 30  1  0  0  0  0
 12 31  1  0  0  0  0
 13 14  1  0  0  0  0
 13 19  2  0  0  0  0
 14 32  1  0  0  0  0
 15 19  1  0  0  0  0
 15 33  1  0  0  0  0
 17 34  1  0  0  0  0
 17 35  1  0  0  0  0
 19 36  1  0  0  0  0
 20 22  1  0  0  0  0
 20 23  1  0  0  0  0
 20 37  1  0  0  0  0
 21 24  1  0  0  0  0
 21 25  1  0  0  0  0
 21 38  1  0  0  0  0
 22 26  1  0  0  0  0
 22 39  1  0  0  0  0
 22 40  1  0  0  0  0
 23 27  1  0  0  0  0
 23 41  1  0  0  0  0
 23 42  1  0  0  0  0
 24 43  1  0  0  0  0
 24 44  1  0  0  0  0
 24 45  1  0  0  0  0
 25 46  1  0  0  0  0
 25 47  1  0  0  0  0
 25 48  1  0  0  0  0
 26 27  1  0  0  0  0
 26 49  1  0  0  0  0
 26 50  1  0  0  0  0
 27 51  1  0  0  0  0
 27 52  1  0  0  0  0
M  END
>  <$CLUSTER>
939

>  <INDEX>
171136

$$$$
Specs AG-205/07903010
  MOE2020           3D

 38 40  0  0  0  0  0  0  0  0999 V2000
    0.2990   -0.6230   -0.2970 N   0  3  0  0  0  0  0  0  0  0  0  0
    0.6710    3.0390    2.9640 C   0  0  0  0  0  0  0  0  0  0  0  0
    1.8580    2.4730    3.3450 O   0  0  0  0  0  0  0  0  0  0  0  0
    0.4420    4.1700    3.7260 C   0  0  0  0  0  0  0  0  0  0  0  0
   -0.2380    0.5920    0.3150 C   0  0  0  0  0  0  0  0  0  0  0  0
    2.3720    3.2410    4.3390 C   0  0  0  0  0  0  0  0  0  0  0  0
    5.9290    3.5700    7.4840 C   0  0  0  0  0  0  0  0  0  0  0  0
   -0.0570    2.3630    1.8930 C   0  0  0  0  0  0  0  0  0  0  0  0
    4.1940    3.5030    5.8490 N   0  0  0  0  0  0  0  0  0  0  0  0
    0.4710    1.1690    1.2920 C   0  0  0  0  0  0  0  0  0  0  0  0
    1.5390    4.2980    4.6120 C   0  0  0  0  0  0  0  0  0  0  0  0
    1.3820   -1.0670    0.1110 O   0  5  0  0  0  0  0  0  0  0  0  0
   -0.3690   -1.1450   -1.2000 O   0  0  0  0  0  0  0  0  0  0  0  0
    3.6290    2.8340    4.9000 C   0  0  0  0  0  0  0  0  0  0  0  0
    7.2400    2.9130    7.8280 C   0  0  0  0  0  0  0  0  0  0  0  0
    5.3760    2.9860    6.2720 N   0  0  0  0  0  0  0  0  0  0  0  0
    5.4460    4.4660    8.1240 O   0  0  0  0  0  0  0  0  0  0  0  0
    8.0970    2.3240    6.9380 C   0  0  0  0  0  0  0  0  0  0  0  0
    7.5980    3.0060    9.2050 C   0  0  0  0  0  0  0  0  0  0  0  0
    9.6600    1.8410    8.7220 C   0  0  0  0  0  0  0  0  0  0  0  0
    8.8070    2.4570    9.6360 C   0  0  0  0  0  0  0  0  0  0  0  0
    9.3060    1.7770    7.3760 C   0  0  0  0  0  0  0  0  0  0  0  0
   10.7930    1.3380    9.2120 F   0  0  0  0  0  0  0  0  0  0  0  0
   -1.5450    1.0740   -0.2200 C   0  0  0  0  0  0  0  0  0  0  0  0
   -1.2840    2.8730    1.4380 C   0  0  0  0  0  0  0  0  0  0  0  0
   -1.9910    2.2360    0.4140 C   0  0  0  0  0  0  0  0  0  0  0  0
   -0.4110    4.8300    3.6580 H   0  0  0  0  0  0  0  0  0  0  0  0
    1.4110    0.7500    1.6190 H   0  0  0  0  0  0  0  0  0  0  0  0
    1.6900    5.0700    5.3520 H   0  0  0  0  0  0  0  0  0  0  0  0
    4.1140    1.9470    4.5190 H   0  0  0  0  0  0  0  0  0  0  0  0
    5.8430    2.2410    5.7750 H   0  0  0  0  0  0  0  0  0  0  0  0
    7.8370    2.2820    5.8910 H   0  0  0  0  0  0  0  0  0  0  0  0
    6.9400    3.4960    9.9080 H   0  0  0  0  0  0  0  0  0  0  0  0
    9.0820    2.5100   10.6790 H   0  0  0  0  0  0  0  0  0  0  0  0
    9.9690    1.3020    6.6680 H   0  0  0  0  0  0  0  0  0  0  0  0
   -2.0870    0.5780   -1.0120 H   0  0  0  0  0  0  0  0  0  0  0  0
   -1.6870    3.7700    1.8850 H   0  0  0  0  0  0  0  0  0  0  0  0
   -2.9300    2.6640    0.0970 H   0  0  0  0  0  0  0  0  0  0  0  0
  1  5  1  0  0  0  0
  1 12  1  0  0  0  0
  1 13  2  0  0  0  0
  2  3  1  0  0  0  0
  2  4  2  0  0  0  0
  2  8  1  0  0  0  0
  3  6  1  0  0  0  0
  4 11  1  0  0  0  0
  4 27  1  0  0  0  0
  5 10  2  0  0  0  0
  5 24  1  0  0  0  0
  6 11  2  0  0  0  0
  6 14  1  0  0  0  0
  7 15  1  0  0  0  0
  7 16  1  0  0  0  0
  7 17  2  0  0  0  0
  8 10  1  0  0  0  0
  8 25  2  0  0  0  0
  9 14  2  0  0  0  0
  9 16  1  0  0  0  0
 10 28  1  0  0  0  0
 11 29  1  0  0  0  0
 14 30  1  0  0  0  0
 15 18  1  0  0  0  0
 15 19  2  0  0  0  0
 16 31  1  0  0  0  0
 18 22  2  0  0  0  0
 18 32  1  0  0  0  0
 19 21  1  0  0  0  0
 19 33  1  0  0  0  0
 20 21  2  0  0  0  0
 20 22  1  0  0  0  0
 20 23  1  0  0  0  0
 21 34  1  0  0  0  0
 22 35  1  0  0  0  0
 24 26  2  0  0  0  0
 24 36  1  0  0  0  0
 25 26  1  0  0  0  0
 25 37  1  0  0  0  0
 26 38  1  0  0  0  0
M  CHG  1   1   1
M  CHG  1  12  -1
M  END
>  <$CLUSTER>
940

>  <INDEX>
492692

$$$$
BiotechCA 57288
  MOE2020           3D

 50 53  0  0  0  0  0  0  0  0999 V2000
   -0.8760    0.0140   -0.0700 C   0  0  0  0  0  0  0  0  0  0  0  0
   -0.7520   -0.3090   -1.4270 O   0  0  0  0  0  0  0  0  0  0  0  0
   -2.1790    0.1470    0.4460 C   0  0  0  0  0  0  0  0  0  0  0  0
    0.4710   -0.4360   -2.0450 C   0  0  0  0  0  0  0  0  0  0  0  0
    1.5920    0.0270    0.1010 C   0  0  0  0  0  0  0  0  0  0  0  0
    0.2680    0.2020    0.7190 C   0  0  0  0  0  0  0  0  0  0  0  0
    1.6730   -0.2500   -1.2100 C   0  0  0  0  0  0  0  0  0  0  0  0
   -4.4950   -0.7530    0.2330 N   0  3  0  0  0  0  0  0  0  0  0  0
   -3.3980   -0.0260   -0.4300 C   0  0  0  0  0  0  0  0  0  0  0  0
    0.0920    0.5640    2.0620 C   0  0  0  0  0  0  0  0  0  0  0  0
   -2.3020    0.5210    1.7910 C   0  0  0  0  0  0  0  0  0  0  0  0
    0.5450   -0.7020   -3.2420 O   0  0  0  0  0  0  0  0  0  0  0  0
   -1.1850    0.7250    2.5970 C   0  0  0  0  0  0  0  0  0  0  0  0
   -5.8130   -0.6010   -0.4810 C   0  0  0  0  0  0  0  0  0  0  0  0
   -4.2020   -2.2180    0.4890 C   0  0  0  0  0  0  0  0  0  0  0  0
    2.8280    0.1640    0.9640 C   0  0  0  0  0  0  0  0  0  0  0  0
    2.9880   -0.3890   -1.9430 C   0  0  0  0  0  0  0  0  0  0  0  0
   -3.5680    0.6810    2.3120 O   0  0  0  0  0  0  0  0  0  0  0  0
   -5.3030   -2.8790    1.2800 C   0  0  0  0  0  0  0  0  0  0  0  0
   -6.9520   -1.2450    0.2980 C   0  0  0  0  0  0  0  0  0  0  0  0
   -6.6630   -2.7240    0.5870 C   0  0  0  0  0  0  0  0  0  0  0  0
   -7.7780   -3.3430    1.4300 C   0  0  0  0  0  0  0  0  0  0  0  0
    4.1150   -0.3190    0.2940 C   0  0  0  0  0  0  0  0  0  0  0  0
    4.1830    0.1400   -1.1530 C   0  0  0  0  0  0  0  0  0  0  0  0
   -4.5700   -0.3080    1.1360 H   0  0  0  0  0  0  0  0  0  0  0  0
   -3.1070   -0.5790   -1.3230 H   0  0  0  0  0  0  0  0  0  0  0  0
   -3.7610    0.9610   -0.7160 H   0  0  0  0  0  0  0  0  0  0  0  0
    0.9570    0.7200    2.6900 H   0  0  0  0  0  0  0  0  0  0  0  0
   -1.3080    1.0070    3.6320 H   0  0  0  0  0  0  0  0  0  0  0  0
   -5.7420   -1.0760   -1.4600 H   0  0  0  0  0  0  0  0  0  0  0  0
   -6.0270    0.4600   -0.6070 H   0  0  0  0  0  0  0  0  0  0  0  0
   -3.2690   -2.2990    1.0470 H   0  0  0  0  0  0  0  0  0  0  0  0
   -4.0990   -2.7300   -0.4680 H   0  0  0  0  0  0  0  0  0  0  0  0
    2.6770   -0.4180    1.8730 H   0  0  0  0  0  0  0  0  0  0  0  0
    2.9500    1.2160    1.2220 H   0  0  0  0  0  0  0  0  0  0  0  0
    2.9210    0.1640   -2.8800 H   0  0  0  0  0  0  0  0  0  0  0  0
    3.1550   -1.4450   -2.1560 H   0  0  0  0  0  0  0  0  0  0  0  0
   -3.5970    0.9340    3.2380 H   0  0  0  0  0  0  0  0  0  0  0  0
   -5.3540   -2.4200    2.2680 H   0  0  0  0  0  0  0  0  0  0  0  0
   -5.0770   -3.9400    1.3830 H   0  0  0  0  0  0  0  0  0  0  0  0
   -7.8690   -1.1700   -0.2860 H   0  0  0  0  0  0  0  0  0  0  0  0
   -7.0790   -0.7170    1.2430 H   0  0  0  0  0  0  0  0  0  0  0  0
   -6.6270   -3.2580   -0.3630 H   0  0  0  0  0  0  0  0  0  0  0  0
   -7.8380   -2.8270    2.3880 H   0  0  0  0  0  0  0  0  0  0  0  0
   -7.5630   -4.3980    1.5980 H   0  0  0  0  0  0  0  0  0  0  0  0
   -8.7280   -3.2450    0.9050 H   0  0  0  0  0  0  0  0  0  0  0  0
    4.1450   -1.4080    0.3240 H   0  0  0  0  0  0  0  0  0  0  0  0
    4.9710    0.0830    0.8360 H   0  0  0  0  0  0  0  0  0  0  0  0
    4.1780    1.2300   -1.1840 H   0  0  0  0  0  0  0  0  0  0  0  0
    5.1030   -0.2320   -1.6040 H   0  0  0  0  0  0  0  0  0  0  0  0
  1  2  1  0  0  0  0
  1  3  1  0  0  0  0
  1  6  2  0  0  0  0
  2  4  1  0  0  0  0
  3  9  1  0  0  0  0
  3 11  2  0  0  0  0
  4  7  1  0  0  0  0
  4 12  2  0  0  0  0
  5  6  1  0  0  0  0
  5  7  2  0  0  0  0
  5 16  1  0  0  0  0
  6 10  1  0  0  0  0
  7 17  1  0  0  0  0
  8  9  1  0  0  0  0
  8 14  1  0  0  0  0
  8 15  1  0  0  0  0
  8 25  1  0  0  0  0
  9 26  1  0  0  0  0
  9 27  1  0  0  0  0
 10 13  2  0  0  0  0
 10 28  1  0  0  0  0
 11 13  1  0  0  0  0
 11 18  1  0  0  0  0
 13 29  1  0  0  0  0
 14 20  1  0  0  0  0
 14 30  1  0  0  0  0
 14 31  1  0  0  0  0
 15 19  1  0  0  0  0
 15 32  1  0  0  0  0
 15 33  1  0  0  0  0
 16 23  1  0  0  0  0
 16 34  1  0  0  0  0
 16 35  1  0  0  0  0
 17 24  1  0  0  0  0
 17 36  1  0  0  0  0
 17 37  1  0  0  0  0
 18 38  1  0  0  0  0
 19 21  1  0  0  0  0
 19 39  1  0  0  0  0
 19 40  1  0  0  0  0
 20 21  1  0  0  0  0
 20 41  1  0  0  0  0
 20 42  1  0  0  0  0
 21 22  1  0  0  0  0
 21 43  1  0  0  0  0
 22 44  1  0  0  0  0
 22 45  1  0  0  0  0
 22 46  1  0  0  0  0
 23 24  1  0  0  0  0
 23 47  1  0  0  0  0
 23 48  1  0  0  0  0
 24 49  1  0  0  0  0
 24 50  1  0  0  0  0
M  CHG  1   8   1
M  END
>  <$CLUSTER>
941

>  <INDEX>
51347

$$$$
Sigma-Aldrich (SALOR) R598631
  MOE2020           3D

 37 39  0  0  0  0  0  0  0  0999 V2000
   -0.8880   -0.0980    0.9050 N   0  0  0  0  0  0  0  0  0  0  0  0
   -1.2750    1.1910    0.8670 N   0  0  0  0  0  0  0  0  0  0  0  0
   -0.4160    1.8440    0.0920 N   0  0  0  0  0  0  0  0  0  0  0  0
   -1.6420   -1.0570    1.6830 C   0  0  0  0  0  0  0  0  0  0  0  0
    0.2330   -0.3150    0.1510 C   0  0  0  0  0  0  0  0  0  0  0  0
   -2.7510   -1.7060    0.8750 C   0  0  0  0  0  0  0  0  0  0  0  0
    0.5150    0.9470   -0.3600 C   0  0  0  0  0  0  0  0  0  0  0  0
   -5.1570   -1.6120    0.4170 N   0  0  0  0  0  0  0  0  0  0  0  0
   -3.9910   -1.1700    1.0640 N   0  0  0  0  0  0  0  0  0  0  0  0
   -6.2750   -1.1590    0.7290 C   0  0  0  0  0  0  0  0  0  0  0  0
   -7.4770   -1.7360    0.0170 C   0  0  0  0  0  0  0  0  0  0  0  0
   -2.5640   -2.6290    0.0750 O   0  0  0  0  0  0  0  0  0  0  0  0
   -7.3420   -2.8850   -0.7610 C   0  0  0  0  0  0  0  0  0  0  0  0
   -8.4360   -3.4350   -1.4350 C   0  0  0  0  0  0  0  0  0  0  0  0
   -8.1980   -4.9640   -2.4500 Br  0  0  0  0  0  0  0  0  0  0  0  0
    1.0050   -1.4420   -0.1360 C   0  0  0  0  0  0  0  0  0  0  0  0
   -8.7550   -1.1260    0.1050 C   0  0  0  0  0  0  0  0  0  0  0  0
    1.6240    1.1230   -1.2010 C   0  0  0  0  0  0  0  0  0  0  0  0
   -9.8480   -1.6790   -0.5710 C   0  0  0  0  0  0  0  0  0  0  0  0
   -6.5390   -0.0940    1.7700 C   0  0  0  0  0  0  0  0  0  0  0  0
   -9.6880   -2.8320   -1.3380 C   0  0  0  0  0  0  0  0  0  0  0  0
    2.1080   -1.2530   -0.9760 C   0  0  0  0  0  0  0  0  0  0  0  0
    2.4140    0.0060   -1.5000 C   0  0  0  0  0  0  0  0  0  0  0  0
   -2.0840   -0.5450    2.5380 H   0  0  0  0  0  0  0  0  0  0  0  0
   -0.9640   -1.8340    2.0350 H   0  0  0  0  0  0  0  0  0  0  0  0
   -4.0770   -0.4020    1.7140 H   0  0  0  0  0  0  0  0  0  0  0  0
   -6.3750   -3.3590   -0.8440 H   0  0  0  0  0  0  0  0  0  0  0  0
    0.7630   -2.4130    0.2710 H   0  0  0  0  0  0  0  0  0  0  0  0
   -8.8850   -0.2310    0.6960 H   0  0  0  0  0  0  0  0  0  0  0  0
    1.8620    2.0950   -1.6070 H   0  0  0  0  0  0  0  0  0  0  0  0
  -10.8190   -1.2110   -0.4980 H   0  0  0  0  0  0  0  0  0  0  0  0
   -7.6100    0.1010    1.8270 H   0  0  0  0  0  0  0  0  0  0  0  0
   -6.0180    0.8220    1.4930 H   0  0  0  0  0  0  0  0  0  0  0  0
   -6.1800   -0.4370    2.7400 H   0  0  0  0  0  0  0  0  0  0  0  0
  -10.5340   -3.2580   -1.8570 H   0  0  0  0  0  0  0  0  0  0  0  0
    2.7350   -2.0960   -1.2240 H   0  0  0  0  0  0  0  0  0  0  0  0
    3.2730    0.1190   -2.1450 H   0  0  0  0  0  0  0  0  0  0  0  0
  1  2  1  0  0  0  0
  1  4  1  0  0  0  0
  1  5  1  0  0  0  0
  2  3  2  0  0  0  0
  3  7  1  0  0  0  0
  4  6  1  0  0  0  0
  4 24  1  0  0  0  0
  4 25  1  0  0  0  0
  5  7  2  0  0  0  0
  5 16  1  0  0  0  0
  6  9  1  0  0  0  0
  6 12  2  0  0  0  0
  7 18  1  0  0  0  0
  8  9  1  0  0  0  0
  8 10  2  0  0  0  0
  9 26  1  0  0  0  0
 10 11  1  0  0  0  0
 10 20  1  0  0  0  0
 11 13  2  0  0  0  0
 11 17  1  0  0  0  0
 13 14  1  0  0  0  0
 13 27  1  0  0  0  0
 14 15  1  0  0  0  0
 14 21  2  0  0  0  0
 16 22  2  0  0  0  0
 16 28  1  0  0  0  0
 17 19  2  0  0  0  0
 17 29  1  0  0  0  0
 18 23  2  0  0  0  0
 18 30  1  0  0  0  0
 19 21  1  0  0  0  0
 19 31  1  0  0  0  0
 20 32  1  0  0  0  0
 20 33  1  0  0  0  0
 20 34  1  0  0  0  0
 21 35  1  0  0  0  0
 22 23  1  0  0  0  0
 22 36  1  0  0  0  0
 23 37  1  0  0  0  0
M  END
>  <$CLUSTER>
942

>  <INDEX>
616341

$$$$
Specs AM-900/14781005
  MOE2020           3D

 34 36  0  0  0  0  0  0  0  0999 V2000
    0.2810   -0.6010   -0.3370 N   0  0  0  0  0  0  0  0  0  0  0  0
    1.0500   -0.0300   -1.3440 C   0  0  0  0  0  0  0  0  0  0  0  0
    1.6890   -0.9820   -1.9900 N   0  0  0  0  0  0  0  0  0  0  0  0
    1.2850   -2.1590   -1.4360 N   0  0  0  0  0  0  0  0  0  0  0  0
    0.4070   -1.9510   -0.4700 N   0  0  0  0  0  0  0  0  0  0  0  0
   -0.5270   -0.0700    0.7040 C   0  0  0  0  0  0  0  0  0  0  0  0
   -0.4260    1.2580    1.1310 C   0  0  0  0  0  0  0  0  0  0  0  0
    1.0570    1.6390   -1.8080 S   0  0  0  0  0  0  0  0  0  0  0  0
   -1.2390    1.7320    2.1670 C   0  0  0  0  0  0  0  0  0  0  0  0
   -1.4380   -0.9210    1.3560 C   0  0  0  0  0  0  0  0  0  0  0  0
   -2.1530    0.8860    2.7910 C   0  0  0  0  0  0  0  0  0  0  0  0
   -2.2490   -0.4410    2.3880 C   0  0  0  0  0  0  0  0  0  0  0  0
    2.2640    1.6410   -3.1520 C   0  0  0  0  0  0  0  0  0  0  0  0
   -1.1150    3.3570    2.6720 Cl  0  0  0  0  0  0  0  0  0  0  0  0
    0.7350   -0.3580   -6.6610 C   0  0  0  0  0  0  0  0  0  0  0  0
    1.7390    0.9390   -4.3970 C   0  0  0  0  0  0  0  0  0  0  0  0
    0.2920   -1.0460   -7.7140 F   0  0  0  0  0  0  0  0  0  0  0  0
    0.5150    1.0060   -6.4850 C   0  0  0  0  0  0  0  0  0  0  0  0
    1.4510   -1.0770   -5.7060 C   0  0  0  0  0  0  0  0  0  0  0  0
    1.0130    1.6550   -5.3540 C   0  0  0  0  0  0  0  0  0  0  0  0
    1.9510   -0.4300   -4.5740 C   0  0  0  0  0  0  0  0  0  0  0  0
   -3.0210    1.4080    3.8860 C   0  0  0  0  0  0  0  0  0  0  0  0
    0.2830    1.9210    0.6590 H   0  0  0  0  0  0  0  0  0  0  0  0
   -1.5110   -1.9560    1.0560 H   0  0  0  0  0  0  0  0  0  0  0  0
   -2.9520   -1.1020    2.8730 H   0  0  0  0  0  0  0  0  0  0  0  0
    3.1660    1.1300   -2.8150 H   0  0  0  0  0  0  0  0  0  0  0  0
    2.5050    2.6730   -3.4060 H   0  0  0  0  0  0  0  0  0  0  0  0
   -0.0420    1.5620   -7.2250 H   0  0  0  0  0  0  0  0  0  0  0  0
    1.6190   -2.1350   -5.8410 H   0  0  0  0  0  0  0  0  0  0  0  0
    0.8370    2.7120   -5.2180 H   0  0  0  0  0  0  0  0  0  0  0  0
    2.5030   -0.9900   -3.8330 H   0  0  0  0  0  0  0  0  0  0  0  0
   -2.7990    2.4620    4.0550 H   0  0  0  0  0  0  0  0  0  0  0  0
   -2.8310    0.8450    4.8000 H   0  0  0  0  0  0  0  0  0  0  0  0
   -4.0680    1.2980    3.6030 H   0  0  0  0  0  0  0  0  0  0  0  0
  1  2  1  0  0  0  0
  1  5  1  0  0  0  0
  1  6  1  0  0  0  0
  2  3  2  0  0  0  0
  2  8  1  0  0  0  0
  3  4  1  0  0  0  0
  4  5  2  0  0  0  0
  6  7  2  0  0  0  0
  6 10  1  0  0  0  0
  7  9  1  0  0  0  0
  7 23  1  0  0  0  0
  8 13  1  0  0  0  0
  9 11  2  0  0  0  0
  9 14  1  0  0  0  0
 10 12  2  0  0  0  0
 10 24  1  0  0  0  0
 11 12  1  0  0  0  0
 11 22  1  0  0  0  0
 12 25  1  0  0  0  0
 13 16  1  0  0  0  0
 13 26  1  0  0  0  0
 13 27  1  0  0  0  0
 15 17  1  0  0  0  0
 15 18  2  0  0  0  0
 15 19  1  0  0  0  0
 16 20  2  0  0  0  0
 16 21  1  0  0  0  0
 18 20  1  0  0  0  0
 18 28  1  0  0  0  0
 19 21  2  0  0  0  0
 19 29  1  0  0  0  0
 20 30  1  0  0  0  0
 21 31  1  0  0  0  0
 22 32  1  0  0  0  0
 22 33  1  0  0  0  0
 22 34  1  0  0  0  0
M  END
>  <$CLUSTER>
943

>  <INDEX>
505348

$$$$
Sigma-Aldrich (SALOR) S761370
  MOE2020           3D

 38 41  0  0  1  0  0  0  0  0999 V2000
   -0.2900    0.8960   -1.0420 C   0  0  0  0  0  0  0  0  0  0  0  0
    1.0150    0.7050   -0.9240 N   0  3  0  0  0  0  0  0  0  0  0  0
   -1.2200    0.3510   -0.2530 N   0  0  0  0  0  0  0  0  0  0  0  0
    0.6030   -0.6760    1.0190 C   0  0  0  0  0  0  0  0  0  0  0  0
   -0.9020   -0.5910    0.8320 C   0  0  3  0  0  0  0  0  0  0  0  0
    1.4820   -0.0500    0.1120 C   0  0  0  0  0  0  0  0  0  0  0  0
   -0.9510    1.9480   -2.2820 S   0  0  0  0  0  0  0  0  0  0  0  0
   -2.4910    0.7880   -0.5770 C   0  0  0  0  0  0  0  0  0  0  0  0
   -2.5310    1.6300   -1.6170 C   0  0  0  0  0  0  0  0  0  0  0  0
    2.8650   -0.1780    0.2870 C   0  0  0  0  0  0  0  0  0  0  0  0
    1.1360   -1.3950    2.1010 C   0  0  0  0  0  0  0  0  0  0  0  0
   -1.4850   -1.9610    0.4790 C   0  0  0  0  0  0  0  0  0  0  0  0
    1.9470    1.3120   -1.9150 C   0  0  0  0  0  0  0  0  0  0  0  0
    2.5150   -1.5100    2.2690 C   0  0  0  0  0  0  0  0  0  0  0  0
    3.3800   -0.9060    1.3590 C   0  0  0  0  0  0  0  0  0  0  0  0
    3.1280   -2.3920    3.5900 Cl  0  0  0  0  0  0  0  0  0  0  0  0
   -3.6250    0.3330    0.1840 C   0  0  0  0  0  0  0  0  0  0  0  0
   -1.2730   -2.5910   -0.7530 C   0  0  0  0  0  0  0  0  0  0  0  0
   -2.2180   -2.6710    1.4690 C   0  0  0  0  0  0  0  0  0  0  0  0
   -2.7290   -3.9460    1.2020 C   0  0  0  0  0  0  0  0  0  0  0  0
   -1.7830   -3.8650   -1.0180 C   0  0  0  0  0  0  0  0  0  0  0  0
   -2.5100   -4.5410   -0.0390 C   0  0  0  0  0  0  0  0  0  0  0  0
   -1.3390   -0.2460    1.7690 H   0  0  0  0  0  0  0  0  0  0  0  0
   -3.4420    2.0640   -2.0020 H   0  0  0  0  0  0  0  0  0  0  0  0
    3.5390    0.2910   -0.4140 H   0  0  0  0  0  0  0  0  0  0  0  0
    0.4700   -1.8640    2.8110 H   0  0  0  0  0  0  0  0  0  0  0  0
    2.9730    1.0480   -1.6580 H   0  0  0  0  0  0  0  0  0  0  0  0
    1.8360    2.3960   -1.9010 H   0  0  0  0  0  0  0  0  0  0  0  0
    1.7140    0.9360   -2.9110 H   0  0  0  0  0  0  0  0  0  0  0  0
    4.4490   -1.0020    1.4840 H   0  0  0  0  0  0  0  0  0  0  0  0
   -3.2880   -0.3450    0.9680 H   0  0  0  0  0  0  0  0  0  0  0  0
   -4.3180   -0.1900   -0.4750 H   0  0  0  0  0  0  0  0  0  0  0  0
   -4.1270    1.1890    0.6340 H   0  0  0  0  0  0  0  0  0  0  0  0
   -0.7030   -2.0810   -1.5160 H   0  0  0  0  0  0  0  0  0  0  0  0
   -2.3820   -2.2220    2.4370 H   0  0  0  0  0  0  0  0  0  0  0  0
   -3.2940   -4.4700    1.9590 H   0  0  0  0  0  0  0  0  0  0  0  0
   -1.6140   -4.3250   -1.9800 H   0  0  0  0  0  0  0  0  0  0  0  0
   -2.9040   -5.5260   -0.2420 H   0  0  0  0  0  0  0  0  0  0  0  0
  1  2  2  0  0  0  0
  1  3  1  0  0  0  0
  1  7  1  0  0  0  0
  2  6  1  0  0  0  0
  2 13  1  0  0  0  0
  3  5  1  0  0  0  0
  3  8  1  0  0  0  0
  4  5  1  0  0  0  0
  4  6  2  0  0  0  0
  4 11  1  0  0  0  0
  5 12  1  0  0  0  0
  5 23  1  0  0  0  0
  6 10  1  0  0  0  0
  7  9  1  0  0  0  0
  8  9  2  0  0  0  0
  8 17  1  0  0  0  0
  9 24  1  0  0  0  0
 10 15  2  0  0  0  0
 10 25  1  0  0  0  0
 11 14  2  0  0  0  0
 11 26  1  0  0  0  0
 12 18  1  0  0  0  0
 12 19  2  0  0  0  0
 13 27  1  0  0  0  0
 13 28  1  0  0  0  0
 13 29  1  0  0  0  0
 14 15  1  0  0  0  0
 14 16  1  0  0  0  0
 15 30  1  0  0  0  0
 17 31  1  0  0  0  0
 17 32  1  0  0  0  0
 17 33  1  0  0  0  0
 18 21  2  0  0  0  0
 18 34  1  0  0  0  0
 19 20  1  0  0  0  0
 19 35  1  0  0  0  0
 20 22  2  0  0  0  0
 20 36  1  0  0  0  0
 21 22  1  0  0  0  0
 21 37  1  0  0  0  0
 22 38  1  0  0  0  0
M  CHG  1   2   1
M  END
>  <$CLUSTER>
944

>  <INDEX>
622777

$$$$
Chem T&I VAD 0002133
  MOE2020           3D

 48 50  0  0  0  0  0  0  0  0999 V2000
    0.9300   -0.3710    0.0400 C   0  0  0  0  0  0  0  0  0  0  0  0
    1.5620   -1.5940    0.2170 C   0  0  0  0  0  0  0  0  0  0  0  0
   -0.3950   -0.6800   -0.2700 N   0  0  0  0  0  0  0  0  0  0  0  0
   -0.4920   -1.9630   -0.7120 N   0  0  0  0  0  0  0  0  0  0  0  0
    1.5140    0.8800    0.1600 N   0  0  0  0  0  0  0  0  0  0  0  0
    0.6410   -2.5280   -0.2990 C   0  0  0  0  0  0  0  0  0  0  0  0
    1.0670    2.0200   -0.4900 C   0  0  0  0  0  0  0  0  0  0  0  0
    2.9050   -1.8170    0.7050 C   0  0  0  0  0  0  0  0  0  0  0  0
    1.8160    3.2480   -0.0420 C   0  0  0  0  0  0  0  0  0  0  0  0
    3.0850    3.2500    0.4830 C   0  0  0  0  0  0  0  0  0  0  0  0
    3.6980    4.4460    0.8620 C   0  0  0  0  0  0  0  0  0  0  0  0
   -1.5840    0.0860   -0.1260 C   0  0  0  0  0  0  0  0  0  0  0  0
    0.2220    2.0840   -1.3790 O   0  0  0  0  0  0  0  0  0  0  0  0
    3.0310    5.6600    0.7000 C   0  0  0  0  0  0  0  0  0  0  0  0
    3.6560   -0.9340    1.0990 O   0  0  0  0  0  0  0  0  0  0  0  0
    1.1330    4.4880   -0.2300 C   0  0  0  0  0  0  0  0  0  0  0  0
    1.7500    5.6800    0.1530 C   0  0  0  0  0  0  0  0  0  0  0  0
    3.2630   -3.1280    0.6920 O   0  0  0  0  0  0  0  0  0  0  0  0
    5.0740    4.4300    1.4460 C   0  0  0  0  0  0  0  0  0  0  0  0
   -1.6570    1.1270    0.8080 C   0  0  0  0  0  0  0  0  0  0  0  0
   -2.7250   -0.2590   -0.8660 C   0  0  0  0  0  0  0  0  0  0  0  0
    3.6940    6.9310    1.1140 C   0  0  0  0  0  0  0  0  0  0  0  0
    4.5570   -3.4860    1.1470 C   0  0  0  0  0  0  0  0  0  0  0  0
    4.7210   -4.9890    1.0350 C   0  0  0  0  0  0  0  0  0  0  0  0
   -2.8450    1.8450    0.9640 C   0  0  0  0  0  0  0  0  0  0  0  0
   -3.9080    0.4650   -0.7050 C   0  0  0  0  0  0  0  0  0  0  0  0
   -3.9680    1.5180    0.2050 C   0  0  0  0  0  0  0  0  0  0  0  0
    2.3200    0.9670    0.7620 H   0  0  0  0  0  0  0  0  0  0  0  0
    0.8340   -3.5890   -0.3540 H   0  0  0  0  0  0  0  0  0  0  0  0
    3.6150    2.3170    0.6040 H   0  0  0  0  0  0  0  0  0  0  0  0
    0.1450    4.5030   -0.6660 H   0  0  0  0  0  0  0  0  0  0  0  0
    1.2330    6.6200    0.0250 H   0  0  0  0  0  0  0  0  0  0  0  0
    5.4350    3.4030    1.4970 H   0  0  0  0  0  0  0  0  0  0  0  0
    5.0480    4.8560    2.4490 H   0  0  0  0  0  0  0  0  0  0  0  0
    5.7420    5.0200    0.8180 H   0  0  0  0  0  0  0  0  0  0  0  0
   -0.7940    1.3750    1.4080 H   0  0  0  0  0  0  0  0  0  0  0  0
   -2.6880   -1.0850   -1.5610 H   0  0  0  0  0  0  0  0  0  0  0  0
    4.6830    6.7110    1.5150 H   0  0  0  0  0  0  0  0  0  0  0  0
    3.0930    7.4220    1.8790 H   0  0  0  0  0  0  0  0  0  0  0  0
    3.7910    7.5890    0.2500 H   0  0  0  0  0  0  0  0  0  0  0  0
    4.6760   -3.1820    2.1870 H   0  0  0  0  0  0  0  0  0  0  0  0
    5.3100   -2.9900    0.5350 H   0  0  0  0  0  0  0  0  0  0  0  0
    3.9670   -5.4830    1.6480 H   0  0  0  0  0  0  0  0  0  0  0  0
    5.7150   -5.2730    1.3820 H   0  0  0  0  0  0  0  0  0  0  0  0
    4.5990   -5.2910   -0.0050 H   0  0  0  0  0  0  0  0  0  0  0  0
   -2.8940    2.6560    1.6750 H   0  0  0  0  0  0  0  0  0  0  0  0
   -4.7800    0.2080   -1.2880 H   0  0  0  0  0  0  0  0  0  0  0  0
   -4.8830    2.0800    0.3220 H   0  0  0  0  0  0  0  0  0  0  0  0
  1  2  2  0  0  0  0
  1  3  1  0  0  0  0
  1  5  1  0  0  0  0
  2  6  1  0  0  0  0
  2  8  1  0  0  0  0
  3  4  1  0  0  0  0
  3 12  1  0  0  0  0
  4  6  2  0  0  0  0
  5  7  1  0  0  0  0
  5 28  1  0  0  0  0
  6 29  1  0  0  0  0
  7  9  1  0  0  0  0
  7 13  2  0  0  0  0
  8 15  2  0  0  0  0
  8 18  1  0  0  0  0
  9 10  1  0  0  0  0
  9 16  2  0  0  0  0
 10 11  2  0  0  0  0
 10 30  1  0  0  0  0
 11 14  1  0  0  0  0
 11 19  1  0  0  0  0
 12 20  2  0  0  0  0
 12 21  1  0  0  0  0
 14 17  2  0  0  0  0
 14 22  1  0  0  0  0
 16 17  1  0  0  0  0
 16 31  1  0  0  0  0
 17 32  1  0  0  0  0
 18 23  1  0  0  0  0
 19 33  1  0  0  0  0
 19 34  1  0  0  0  0
 19 35  1  0  0  0  0
 20 25  1  0  0  0  0
 20 36  1  0  0  0  0
 21 26  2  0  0  0  0
 21 37  1  0  0  0  0
 22 38  1  0  0  0  0
 22 39  1  0  0  0  0
 22 40  1  0  0  0  0
 23 24  1  0  0  0  0
 23 41  1  0  0  0  0
 23 42  1  0  0  0  0
 24 43  1  0  0  0  0
 24 44  1  0  0  0  0
 24 45  1  0  0  0  0
 25 27  2  0  0  0  0
 25 46  1  0  0  0  0
 26 27  1  0  0  0  0
 26 47  1  0  0  0  0
 27 48  1  0  0  0  0
M  END
>  <$CLUSTER>
945

>  <INDEX>
650436

$$$$
Bionet 12R-1184
  MOE2020           3D

 38 40  0  0  0  0  0  0  0  0999 V2000
   -0.6240    7.7450   -0.8500 C   0  0  0  0  0  0  0  0  0  0  0  0
    0.0450    2.6230   -0.8010 C   0  0  0  0  0  0  0  0  0  0  0  0
   -0.0580    1.3040   -0.6770 N   0  0  0  0  0  0  0  0  0  0  0  0
   -1.0170    3.3880   -0.4190 N   0  0  0  0  0  0  0  0  0  0  0  0
    0.3130    6.7920   -1.1690 N   0  0  0  0  0  0  0  0  0  0  0  0
   -0.1390    9.1460   -1.1330 C   0  0  0  0  0  0  0  0  0  0  0  0
   -1.7430    7.5420   -0.3850 O   0  0  0  0  0  0  0  0  0  0  0  0
    1.2040    3.2300   -1.3060 C   0  0  0  0  0  0  0  0  0  0  0  0
    0.0500   -1.2900    0.6520 O   0  0  0  0  0  0  0  0  0  0  0  0
    0.1920    5.3940   -1.0330 C   0  0  0  0  0  0  0  0  0  0  0  0
   -1.1510   10.1230   -1.3510 C   0  0  0  0  0  0  0  0  0  0  0  0
    1.1810    9.5200   -1.1280 C   0  0  0  0  0  0  0  0  0  0  0  0
   -0.9240    4.7380   -0.5420 C   0  0  0  0  0  0  0  0  0  0  0  0
    0.5610   11.8090   -1.6130 C   0  0  0  0  0  0  0  0  0  0  0  0
    1.2760    4.6190   -1.4220 C   0  0  0  0  0  0  0  0  0  0  0  0
    1.5420   10.8470   -1.3760 C   0  0  0  0  0  0  0  0  0  0  0  0
   -0.7840   11.4470   -1.5990 C   0  0  0  0  0  0  0  0  0  0  0  0
    0.9940   13.0480   -1.8460 F   0  0  0  0  0  0  0  0  0  0  0  0
   -1.2610    0.6380   -0.1500 C   0  0  0  0  0  0  0  0  0  0  0  0
    0.9480    0.2850   -1.0190 C   0  0  0  0  0  0  0  0  0  0  0  0
   -0.9270   -0.2950    1.0250 C   0  0  0  0  0  0  0  0  0  0  0  0
    1.2470   -0.6420    0.1700 C   0  0  0  0  0  0  0  0  0  0  0  0
    1.1870    7.1310   -1.5430 H   0  0  0  0  0  0  0  0  0  0  0  0
    2.0440    2.6210   -1.6060 H   0  0  0  0  0  0  0  0  0  0  0  0
   -2.1940    9.8430   -1.3250 H   0  0  0  0  0  0  0  0  0  0  0  0
    1.9460    8.7840   -0.9310 H   0  0  0  0  0  0  0  0  0  0  0  0
   -1.7710    5.3350   -0.2390 H   0  0  0  0  0  0  0  0  0  0  0  0
    2.1680    5.0870   -1.8110 H   0  0  0  0  0  0  0  0  0  0  0  0
    2.5850   11.1280   -1.3840 H   0  0  0  0  0  0  0  0  0  0  0  0
   -1.5450   12.1920   -1.7800 H   0  0  0  0  0  0  0  0  0  0  0  0
   -1.7180    0.0520   -0.9470 H   0  0  0  0  0  0  0  0  0  0  0  0
   -1.9640    1.3980    0.1910 H   0  0  0  0  0  0  0  0  0  0  0  0
    1.8700    0.7850   -1.3170 H   0  0  0  0  0  0  0  0  0  0  0  0
    0.5750   -0.3150   -1.8490 H   0  0  0  0  0  0  0  0  0  0  0  0
   -0.5300    0.3000    1.8470 H   0  0  0  0  0  0  0  0  0  0  0  0
   -1.8390   -0.7980    1.3480 H   0  0  0  0  0  0  0  0  0  0  0  0
    1.9590   -1.4040   -0.1460 H   0  0  0  0  0  0  0  0  0  0  0  0
    1.6800   -0.0530    0.9780 H   0  0  0  0  0  0  0  0  0  0  0  0
  1  5  1  0  0  0  0
  1  6  1  0  0  0  0
  1  7  2  0  0  0  0
  2  3  1  0  0  0  0
  2  4  2  0  0  0  0
  2  8  1  0  0  0  0
  3 19  1  0  0  0  0
  3 20  1  0  0  0  0
  4 13  1  0  0  0  0
  5 10  1  0  0  0  0
  5 23  1  0  0  0  0
  6 11  1  0  0  0  0
  6 12  2  0  0  0  0
  8 15  2  0  0  0  0
  8 24  1  0  0  0  0
  9 21  1  0  0  0  0
  9 22  1  0  0  0  0
 10 13  2  0  0  0  0
 10 15  1  0  0  0  0
 11 17  2  0  0  0  0
 11 25  1  0  0  0  0
 12 16  1  0  0  0  0
 12 26  1  0  0  0  0
 13 27  1  0  0  0  0
 14 16  2  0  0  0  0
 14 17  1  0  0  0  0
 14 18  1  0  0  0  0
 15 28  1  0  0  0  0
 16 29  1  0  0  0  0
 17 30  1  0  0  0  0
 19 21  1  0  0  0  0
 19 31  1  0  0  0  0
 19 32  1  0  0  0  0
 20 22  1  0  0  0  0
 20 33  1  0  0  0  0
 20 34  1  0  0  0  0
 21 35  1  0  0  0  0
 21 36  1  0  0  0  0
 22 37  1  0  0  0  0
 22 38  1  0  0  0  0
M  END
>  <$CLUSTER>
946

>  <INDEX>
13548

$$$$
Specs AI-204/31702052
  MOE2020           3D

 26 28  0  0  0  0  0  0  0  0999 V2000
    2.6350   -0.5430   -2.1420 C   0  0  0  0  0  0  0  0  0  0  0  0
   -0.2080   -1.0000    1.7150 N   0  3  0  0  0  0  0  0  0  0  0  0
    1.9230    0.1440   -2.9910 N   0  0  0  0  0  0  0  0  0  0  0  0
    1.9770   -0.9730   -0.5080 S   0  0  0  0  0  0  0  0  0  0  0  0
    0.3460   -0.2290   -0.5710 C   0  0  0  0  0  0  0  0  0  0  0  0
   -0.5470   -0.3100    0.4970 C   0  0  0  0  0  0  0  0  0  0  0  0
    4.1930   -1.0200   -2.6130 S   0  0  0  0  0  0  0  0  0  0  0  0
    2.6750    0.3180   -4.1360 C   0  0  0  0  0  0  0  0  0  0  0  0
    3.9340   -0.2430   -4.1180 C   0  0  0  0  0  0  0  0  0  0  0  0
   -0.0020    0.4270   -1.7040 N   0  0  0  0  0  0  0  0  0  0  0  0
    0.3190   -0.3280    2.6100 O   0  5  0  0  0  0  0  0  0  0  0  0
   -0.4840   -2.2050    1.7700 O   0  0  0  0  0  0  0  0  0  0  0  0
   -1.8100    0.2770    0.4260 C   0  0  0  0  0  0  0  0  0  0  0  0
    2.2510    1.0180   -5.3040 C   0  0  0  0  0  0  0  0  0  0  0  0
    4.8170   -0.1430   -5.2260 C   0  0  0  0  0  0  0  0  0  0  0  0
   -1.2320    0.9930   -1.7610 C   0  0  0  0  0  0  0  0  0  0  0  0
   -2.1610    0.9470   -0.7350 C   0  0  0  0  0  0  0  0  0  0  0  0
    3.1140    1.1220   -6.4000 C   0  0  0  0  0  0  0  0  0  0  0  0
    4.3800    0.5480   -6.3590 C   0  0  0  0  0  0  0  0  0  0  0  0
   -2.4980    0.2110    1.2560 H   0  0  0  0  0  0  0  0  0  0  0  0
    1.2690    1.4650   -5.3420 H   0  0  0  0  0  0  0  0  0  0  0  0
    5.8000   -0.5890   -5.1940 H   0  0  0  0  0  0  0  0  0  0  0  0
   -1.5060    1.5140   -2.6660 H   0  0  0  0  0  0  0  0  0  0  0  0
   -3.1280    1.4180   -0.8360 H   0  0  0  0  0  0  0  0  0  0  0  0
    2.7950    1.6520   -7.2850 H   0  0  0  0  0  0  0  0  0  0  0  0
    5.0340    0.6380   -7.2140 H   0  0  0  0  0  0  0  0  0  0  0  0
  1  3  2  0  0  0  0
  1  4  1  0  0  0  0
  1  7  1  0  0  0  0
  2  6  1  0  0  0  0
  2 11  1  0  0  0  0
  2 12  2  0  0  0  0
  3  8  1  0  0  0  0
  4  5  1  0  0  0  0
  5  6  2  0  0  0  0
  5 10  1  0  0  0  0
  6 13  1  0  0  0  0
  7  9  1  0  0  0  0
  8  9  2  0  0  0  0
  8 14  1  0  0  0  0
  9 15  1  0  0  0  0
 10 16  2  0  0  0  0
 13 17  2  0  0  0  0
 13 20  1  0  0  0  0
 14 18  2  0  0  0  0
 14 21  1  0  0  0  0
 15 19  2  0  0  0  0
 15 22  1  0  0  0  0
 16 17  1  0  0  0  0
 16 23  1  0  0  0  0
 17 24  1  0  0  0  0
 18 19  1  0  0  0  0
 18 25  1  0  0  0  0
 19 26  1  0  0  0  0
M  CHG  1   2   1
M  CHG  1  11  -1
M  END
>  <$CLUSTER>
947

>  <INDEX>
499815

$$$$
InterBioScreen STOCK2S-05153
  MOE2020           3D

 35 36  0  0  0  0  0  0  0  0999 V2000
    0.5170   -0.2750    0.4830 N   0  3  0  0  0  0  0  0  0  0  0  0
   -0.1970   -1.0320   -0.3020 C   0  0  0  0  0  0  0  0  0  0  0  0
    0.1870    1.0610    0.2750 C   0  0  0  0  0  0  0  0  0  0  0  0
   -1.1490   -0.2200   -1.1810 C   0  0  0  0  0  0  0  0  0  0  0  0
   -0.8050    1.1650   -0.7090 C   0  0  0  0  0  0  0  0  0  0  0  0
    1.5450   -0.7590    1.4690 C   0  0  0  0  0  0  0  0  0  0  0  0
   -0.0860   -2.5170   -0.3270 C   0  0  0  0  0  0  0  0  0  0  0  0
   -2.6040   -0.5760   -0.8770 C   0  0  0  0  0  0  0  0  0  0  0  0
   -0.8160   -0.4120   -2.6610 C   0  0  0  0  0  0  0  0  0  0  0  0
    0.6740    2.2190    0.8690 C   0  0  0  0  0  0  0  0  0  0  0  0
   -1.3240    2.3860   -1.1170 C   0  0  0  0  0  0  0  0  0  0  0  0
    1.1320   -0.4400    2.9020 C   0  0  0  0  0  0  0  0  0  0  0  0
    2.9420   -0.2750    1.0950 C   0  0  0  0  0  0  0  0  0  0  0  0
    0.1600    3.4590    0.4690 C   0  0  0  0  0  0  0  0  0  0  0  0
   -0.8310    3.5420   -0.5170 C   0  0  0  0  0  0  0  0  0  0  0  0
    1.5940   -1.8470    1.4190 H   0  0  0  0  0  0  0  0  0  0  0  0
   -0.7820   -2.9210   -1.0620 H   0  0  0  0  0  0  0  0  0  0  0  0
   -0.3260   -2.9160    0.6590 H   0  0  0  0  0  0  0  0  0  0  0  0
    0.9310   -2.8010   -0.5960 H   0  0  0  0  0  0  0  0  0  0  0  0
   -2.8000   -0.4260    0.1850 H   0  0  0  0  0  0  0  0  0  0  0  0
   -2.7850   -1.6190   -1.1360 H   0  0  0  0  0  0  0  0  0  0  0  0
   -3.2650    0.0640   -1.4630 H   0  0  0  0  0  0  0  0  0  0  0  0
    0.2270   -0.1480   -2.8360 H   0  0  0  0  0  0  0  0  0  0  0  0
   -1.4590    0.2290   -3.2640 H   0  0  0  0  0  0  0  0  0  0  0  0
   -0.9790   -1.4540   -2.9380 H   0  0  0  0  0  0  0  0  0  0  0  0
    1.4390    2.1640    1.6290 H   0  0  0  0  0  0  0  0  0  0  0  0
   -2.0880    2.4380   -1.8780 H   0  0  0  0  0  0  0  0  0  0  0  0
    1.0620    0.6400    3.0280 H   0  0  0  0  0  0  0  0  0  0  0  0
    1.8760   -0.8390    3.5920 H   0  0  0  0  0  0  0  0  0  0  0  0
    0.1630   -0.8940    3.1100 H   0  0  0  0  0  0  0  0  0  0  0  0
    2.9690    0.8140    1.1240 H   0  0  0  0  0  0  0  0  0  0  0  0
    3.1880   -0.6180    0.0900 H   0  0  0  0  0  0  0  0  0  0  0  0
    3.6670   -0.6750    1.8040 H   0  0  0  0  0  0  0  0  0  0  0  0
    0.5330    4.3630    0.9270 H   0  0  0  0  0  0  0  0  0  0  0  0
   -1.2150    4.5070   -0.8130 H   0  0  0  0  0  0  0  0  0  0  0  0
  1  2  2  0  0  0  0
  1  3  1  0  0  0  0
  1  6  1  0  0  0  0
  2  4  1  0  0  0  0
  2  7  1  0  0  0  0
  3  5  2  0  0  0  0
  3 10  1  0  0  0  0
  4  5  1  0  0  0  0
  4  8  1  0  0  0  0
  4  9  1  0  0  0  0
  5 11  1  0  0  0  0
  6 12  1  0  0  0  0
  6 13  1  0  0  0  0
  6 16  1  0  0  0  0
  7 17  1  0  0  0  0
  7 18  1  0  0  0  0
  7 19  1  0  0  0  0
  8 20  1  0  0  0  0
  8 21  1  0  0  0  0
  8 22  1  0  0  0  0
  9 23  1  0  0  0  0
  9 24  1  0  0  0  0
  9 25  1  0  0  0  0
 10 14  2  0  0  0  0
 10 26  1  0  0  0  0
 11 15  2  0  0  0  0
 11 27  1  0  0  0  0
 12 28  1  0  0  0  0
 12 29  1  0  0  0  0
 12 30  1  0  0  0  0
 13 31  1  0  0  0  0
 13 32  1  0  0  0  0
 13 33  1  0  0  0  0
 14 15  1  0  0  0  0
 14 34  1  0  0  0  0
 15 35  1  0  0  0  0
M  CHG  1   1   1
M  END
>  <$CLUSTER>
948

>  <INDEX>
335038

$$$$
Maybridge RJF 01152
  MOE2020           3D

 37 38  0  0  0  0  0  0  0  0999 V2000
    2.1510   -1.4070    0.0110 C   0  0  0  0  0  0  0  0  0  0  0  0
    2.8930   -0.4810    0.6520 N   0  0  0  0  0  0  0  0  0  0  0  0
    0.7880   -1.0480   -0.2460 O   0  0  0  0  0  0  0  0  0  0  0  0
    4.1670   -0.8470    0.8770 C   0  0  0  0  0  0  0  0  0  0  0  0
    0.4010    0.1910    0.1910 C   0  0  0  0  0  0  0  0  0  0  0  0
    4.7300   -2.0200    0.5250 N   0  0  0  0  0  0  0  0  0  0  0  0
    2.5880   -2.6320   -0.4050 C   0  0  0  0  0  0  0  0  0  0  0  0
    3.9170   -2.8910   -0.1140 C   0  0  0  0  0  0  0  0  0  0  0  0
   -0.9390    0.4700   -0.0960 N   0  0  0  0  0  0  0  0  0  0  0  0
    5.0440    0.1370    1.5870 C   0  0  0  0  0  0  0  0  0  0  0  0
    1.1600    0.9640    0.7720 O   0  0  0  0  0  0  0  0  0  0  0  0
    6.3960   -0.1490    1.8720 C   0  0  0  0  0  0  0  0  0  0  0  0
    4.5490    1.3940    1.9980 C   0  0  0  0  0  0  0  0  0  0  0  0
    6.6940    2.0050    2.9270 C   0  0  0  0  0  0  0  0  0  0  0  0
    5.3640    2.3160    2.6590 C   0  0  0  0  0  0  0  0  0  0  0  0
    7.2110    0.7740    2.5340 C   0  0  0  0  0  0  0  0  0  0  0  0
    7.6750    3.1380    3.7350 Cl  0  0  0  0  0  0  0  0  0  0  0  0
    1.7200   -3.6250   -1.1150 C   0  0  0  0  0  0  0  0  0  0  0  0
    4.5140   -4.2070   -0.5200 C   0  0  0  0  0  0  0  0  0  0  0  0
   -1.5200    1.7450    0.2980 C   0  0  0  0  0  0  0  0  0  0  0  0
   -1.8310   -0.4560   -0.7860 C   0  0  0  0  0  0  0  0  0  0  0  0
    6.8100   -1.1010    1.5730 H   0  0  0  0  0  0  0  0  0  0  0  0
    3.5190    1.6480    1.7970 H   0  0  0  0  0  0  0  0  0  0  0  0
    4.9620    3.2710    2.9620 H   0  0  0  0  0  0  0  0  0  0  0  0
    8.2430    0.5320    2.7410 H   0  0  0  0  0  0  0  0  0  0  0  0
    0.7190   -3.2110   -1.2360 H   0  0  0  0  0  0  0  0  0  0  0  0
    1.6650   -4.5430   -0.5300 H   0  0  0  0  0  0  0  0  0  0  0  0
    2.1440   -3.8430   -2.0950 H   0  0  0  0  0  0  0  0  0  0  0  0
    5.5600   -4.2410   -0.2150 H   0  0  0  0  0  0  0  0  0  0  0  0
    4.4470   -4.3180   -1.6020 H   0  0  0  0  0  0  0  0  0  0  0  0
    3.9680   -5.0180   -0.0380 H   0  0  0  0  0  0  0  0  0  0  0  0
   -0.7650    2.3480    0.8010 H   0  0  0  0  0  0  0  0  0  0  0  0
   -2.3560    1.5700    0.9760 H   0  0  0  0  0  0  0  0  0  0  0  0
   -1.8750    2.2720   -0.5880 H   0  0  0  0  0  0  0  0  0  0  0  0
   -1.2890   -1.3700   -1.0300 H   0  0  0  0  0  0  0  0  0  0  0  0
   -2.1950    0.0060   -1.7040 H   0  0  0  0  0  0  0  0  0  0  0  0
   -2.6760   -0.6960   -0.1400 H   0  0  0  0  0  0  0  0  0  0  0  0
  1  2  1  0  0  0  0
  1  3  1  0  0  0  0
  1  7  2  0  0  0  0
  2  4  2  0  0  0  0
  3  5  1  0  0  0  0
  4  6  1  0  0  0  0
  4 10  1  0  0  0  0
  5  9  1  0  0  0  0
  5 11  2  0  0  0  0
  6  8  2  0  0  0  0
  7  8  1  0  0  0  0
  7 18  1  0  0  0  0
  8 19  1  0  0  0  0
  9 20  1  0  0  0  0
  9 21  1  0  0  0  0
 10 12  1  0  0  0  0
 10 13  2  0  0  0  0
 12 16  2  0  0  0  0
 12 22  1  0  0  0  0
 13 15  1  0  0  0  0
 13 23  1  0  0  0  0
 14 15  2  0  0  0  0
 14 16  1  0  0  0  0
 14 17  1  0  0  0  0
 15 24  1  0  0  0  0
 16 25  1  0  0  0  0
 18 26  1  0  0  0  0
 18 27  1  0  0  0  0
 18 28  1  0  0  0  0
 19 29  1  0  0  0  0
 19 30  1  0  0  0  0
 19 31  1  0  0  0  0
 20 32  1  0  0  0  0
 20 33  1  0  0  0  0
 20 34  1  0  0  0  0
 21 35  1  0  0  0  0
 21 36  1  0  0  0  0
 21 37  1  0  0  0  0
M  END
>  <$CLUSTER>
949

>  <INDEX>
619839

$$$$
Maybridge S 04724
  MOE2020           3D

 35 38  0  0  1  0  0  0  0  0999 V2000
   -0.5580    0.6970   -0.1770 N   0  0  0  0  0  0  0  0  0  0  0  0
    0.7670    0.9030   -0.2630 N   0  0  0  0  0  0  0  0  0  0  0  0
   -1.5700    1.3750   -0.8050 C   0  0  0  0  0  0  0  0  0  0  0  0
   -0.9480   -0.4850    0.5560 C   0  0  3  0  0  0  0  0  0  0  0  0
    1.2680   -0.2590    0.0530 C   0  0  0  0  0  0  0  0  0  0  0  0
   -2.7080    0.4480   -0.7260 C   0  0  0  0  0  0  0  0  0  0  0  0
    0.2520   -1.3640    0.3030 C   0  0  0  0  0  0  0  0  0  0  0  0
   -2.3060   -0.7000   -0.0070 C   0  0  0  0  0  0  0  0  0  0  0  0
    2.7320   -0.5380    0.0890 C   0  0  0  0  0  0  0  0  0  0  0  0
   -1.5690    2.4320   -1.4090 O   0  0  0  0  0  0  0  0  0  0  0  0
    3.5910    0.5480    0.0820 C   0  0  0  0  0  0  0  0  0  0  0  0
    3.2030   -1.8360    0.1510 C   0  0  0  0  0  0  0  0  0  0  0  0
    5.4650   -0.9730    0.2000 C   0  0  0  0  0  0  0  0  0  0  0  0
    4.5830   -2.0530    0.2050 C   0  0  0  0  0  0  0  0  0  0  0  0
    4.9700    0.3280    0.1360 C   0  0  0  0  0  0  0  0  0  0  0  0
   -3.9530    0.5610   -1.3040 C   0  0  0  0  0  0  0  0  0  0  0  0
   -3.1730   -1.7620    0.1540 C   0  0  0  0  0  0  0  0  0  0  0  0
    6.8010   -1.3200    0.2580 O   0  0  0  0  0  0  0  0  0  0  0  0
    7.7430   -0.2530    0.2530 C   0  0  0  0  0  0  0  0  0  0  0  0
   -4.8280   -0.5150   -1.1430 C   0  0  0  0  0  0  0  0  0  0  0  0
   -4.4420   -1.6640   -0.4240 C   0  0  0  0  0  0  0  0  0  0  0  0
   -1.1020   -0.5780    1.6310 H   0  0  0  0  0  0  0  0  0  0  0  0
    0.1180   -2.0070   -0.5670 H   0  0  0  0  0  0  0  0  0  0  0  0
    0.5080   -1.9740    1.1690 H   0  0  0  0  0  0  0  0  0  0  0  0
    3.2000    1.5540    0.0350 H   0  0  0  0  0  0  0  0  0  0  0  0
    2.5160   -2.6690    0.1580 H   0  0  0  0  0  0  0  0  0  0  0  0
    4.9680   -3.0610    0.2510 H   0  0  0  0  0  0  0  0  0  0  0  0
    5.6520    1.1660    0.1280 H   0  0  0  0  0  0  0  0  0  0  0  0
   -4.2400    1.4430   -1.8570 H   0  0  0  0  0  0  0  0  0  0  0  0
   -2.8800   -2.6410    0.7090 H   0  0  0  0  0  0  0  0  0  0  0  0
    8.7530   -0.6600    0.3020 H   0  0  0  0  0  0  0  0  0  0  0  0
    7.5680    0.3900    1.1160 H   0  0  0  0  0  0  0  0  0  0  0  0
    7.6290    0.3280   -0.6620 H   0  0  0  0  0  0  0  0  0  0  0  0
   -5.8160   -0.4660   -1.5760 H   0  0  0  0  0  0  0  0  0  0  0  0
   -5.1380   -2.4830   -0.3180 H   0  0  0  0  0  0  0  0  0  0  0  0
  1  2  1  0  0  0  0
  1  3  1  0  0  0  0
  1  4  1  0  0  0  0
  2  5  2  0  0  0  0
  3  6  1  0  0  0  0
  3 10  2  0  0  0  0
  4  7  1  0  0  0  0
  4  8  1  0  0  0  0
  4 22  1  0  0  0  0
  5  7  1  0  0  0  0
  5  9  1  0  0  0  0
  6  8  2  0  0  0  0
  6 16  1  0  0  0  0
  7 23  1  0  0  0  0
  7 24  1  0  0  0  0
  8 17  1  0  0  0  0
  9 11  1  0  0  0  0
  9 12  2  0  0  0  0
 11 15  2  0  0  0  0
 11 25  1  0  0  0  0
 12 14  1  0  0  0  0
 12 26  1  0  0  0  0
 13 14  2  0  0  0  0
 13 15  1  0  0  0  0
 13 18  1  0  0  0  0
 14 27  1  0  0  0  0
 15 28  1  0  0  0  0
 16 20  2  0  0  0  0
 16 29  1  0  0  0  0
 17 21  2  0  0  0  0
 17 30  1  0  0  0  0
 18 19  1  0  0  0  0
 19 31  1  0  0  0  0
 19 32  1  0  0  0  0
 19 33  1  0  0  0  0
 20 21  1  0  0  0  0
 20 34  1  0  0  0  0
 21 35  1  0  0  0  0
M  END
>  <$CLUSTER>
950

>  <INDEX>
620335

$$$$
BiotechCA 18002
  MOE2020           3D

 30 32  0  0  0  0  0  0  0  0999 V2000
   -1.3570    0.4490    0.5040 C   0  0  0  0  0  0  0  0  0  0  0  0
   -0.3340    0.5300   -0.4700 C   0  0  0  0  0  0  0  0  0  0  0  0
   -2.5350    1.2000    0.3410 C   0  0  0  0  0  0  0  0  0  0  0  0
   -0.5280    1.3860   -1.5730 C   0  0  0  0  0  0  0  0  0  0  0  0
   -1.2300   -0.4050    1.7330 C   0  0  0  0  0  0  0  0  0  0  0  0
   -1.7000    2.1310   -1.7170 C   0  0  0  0  0  0  0  0  0  0  0  0
   -2.7040    2.0350   -0.7620 C   0  0  0  0  0  0  0  0  0  0  0  0
    0.9060   -0.2610   -0.3950 C   0  0  0  0  0  0  0  0  0  0  0  0
   -0.1980   -0.2310    2.4510 O   0  0  0  0  0  0  0  0  0  0  0  0
   -2.1790   -1.2190    1.9570 O   0  5  0  0  0  0  0  0  0  0  0  0
   -3.8860    2.7880   -0.9100 C   0  0  0  0  0  0  0  0  0  0  0  0
   -1.8720    2.9750   -2.8350 C   0  0  0  0  0  0  0  0  0  0  0  0
    0.8770   -1.6620   -0.5030 C   0  0  0  0  0  0  0  0  0  0  0  0
    2.1520    0.3680   -0.2270 C   0  0  0  0  0  0  0  0  0  0  0  0
   -3.0460    3.7160   -2.9750 C   0  0  0  0  0  0  0  0  0  0  0  0
   -4.0500    3.6220   -2.0150 C   0  0  0  0  0  0  0  0  0  0  0  0
    3.3290   -0.3820   -0.1620 C   0  0  0  0  0  0  0  0  0  0  0  0
    2.0550   -2.4100   -0.4380 C   0  0  0  0  0  0  0  0  0  0  0  0
    3.2800   -1.7700   -0.2670 C   0  0  0  0  0  0  0  0  0  0  0  0
   -3.3190    1.1290    1.0800 H   0  0  0  0  0  0  0  0  0  0  0  0
    0.2460    1.4670   -2.3220 H   0  0  0  0  0  0  0  0  0  0  0  0
   -4.6660    2.7190   -0.1660 H   0  0  0  0  0  0  0  0  0  0  0  0
   -1.0950    3.0470   -3.5820 H   0  0  0  0  0  0  0  0  0  0  0  0
   -0.0680   -2.1670   -0.6380 H   0  0  0  0  0  0  0  0  0  0  0  0
    2.2000    1.4440   -0.1470 H   0  0  0  0  0  0  0  0  0  0  0  0
   -3.1760    4.3640   -3.8290 H   0  0  0  0  0  0  0  0  0  0  0  0
   -4.9580    4.1960   -2.1270 H   0  0  0  0  0  0  0  0  0  0  0  0
    4.2790    0.1150   -0.0300 H   0  0  0  0  0  0  0  0  0  0  0  0
    2.0160   -3.4860   -0.5200 H   0  0  0  0  0  0  0  0  0  0  0  0
    4.1900   -2.3490   -0.2160 H   0  0  0  0  0  0  0  0  0  0  0  0
  1  2  2  0  0  0  0
  1  3  1  0  0  0  0
  1  5  1  0  0  0  0
  2  4  1  0  0  0  0
  2  8  1  0  0  0  0
  3  7  2  0  0  0  0
  3 20  1  0  0  0  0
  4  6  2  0  0  0  0
  4 21  1  0  0  0  0
  5  9  2  0  0  0  0
  5 10  1  0  0  0  0
  6  7  1  0  0  0  0
  6 12  1  0  0  0  0
  7 11  1  0  0  0  0
  8 13  1  0  0  0  0
  8 14  2  0  0  0  0
 11 16  2  0  0  0  0
 11 22  1  0  0  0  0
 12 15  2  0  0  0  0
 12 23  1  0  0  0  0
 13 18  2  0  0  0  0
 13 24  1  0  0  0  0
 14 17  1  0  0  0  0
 14 25  1  0  0  0  0
 15 16  1  0  0  0  0
 15 26  1  0  0  0  0
 16 27  1  0  0  0  0
 17 19  2  0  0  0  0
 17 28  1  0  0  0  0
 18 19  1  0  0  0  0
 18 29  1  0  0  0  0
 19 30  1  0  0  0  0
M  CHG  1  10  -1
M  END
>  <$CLUSTER>
951

>  <INDEX>
17504

$$$$
Chembridge 6135451
  MOE2020           3D

 34 36  0  0  0  0  0  0  0  0999 V2000
    2.7660   -1.0960   -0.9430 C   0  0  0  0  0  0  0  0  0  0  0  0
    1.4180   -0.9090   -0.8300 N   0  0  0  0  0  0  0  0  0  0  0  0
    0.6430    0.1360   -0.2640 C   0  0  0  0  0  0  0  0  0  0  0  0
    3.0730   -2.1050   -1.8010 N   0  0  0  0  0  0  0  0  0  0  0  0
    4.0220   -0.3280   -0.1520 S   0  0  0  0  0  0  0  0  0  0  0  0
   -0.7190   -0.1130    0.1010 C   0  0  0  0  0  0  0  0  0  0  0  0
    2.3460   -3.1830   -2.4160 C   0  0  0  0  0  0  0  0  0  0  0  0
   -1.5010    0.9630    0.6130 C   0  0  0  0  0  0  0  0  0  0  0  0
    1.0020   -5.3350   -3.6320 C   0  0  0  0  0  0  0  0  0  0  0  0
    0.2910   -6.3310   -4.1570 F   0  0  0  0  0  0  0  0  0  0  0  0
    2.8920   -3.8300   -3.5370 C   0  0  0  0  0  0  0  0  0  0  0  0
    1.1410   -3.6570   -1.8900 C   0  0  0  0  0  0  0  0  0  0  0  0
    2.2190   -4.8920   -4.1480 C   0  0  0  0  0  0  0  0  0  0  0  0
    0.4680   -4.7210   -2.5000 C   0  0  0  0  0  0  0  0  0  0  0  0
    1.1580    1.4330   -0.1260 C   0  0  0  0  0  0  0  0  0  0  0  0
    0.3800    2.4710    0.3820 C   0  0  0  0  0  0  0  0  0  0  0  0
   -1.3510   -1.3800    0.0150 C   0  0  0  0  0  0  0  0  0  0  0  0
   -0.9390    2.2380    0.7510 C   0  0  0  0  0  0  0  0  0  0  0  0
   -2.8390    0.7580    0.9880 C   0  0  0  0  0  0  0  0  0  0  0  0
   -2.6830   -1.5670    0.3920 C   0  0  0  0  0  0  0  0  0  0  0  0
   -3.4280   -0.4990    0.8750 C   0  0  0  0  0  0  0  0  0  0  0  0
    0.8670   -1.6580   -1.2250 H   0  0  0  0  0  0  0  0  0  0  0  0
    4.0460   -2.0950   -2.0720 H   0  0  0  0  0  0  0  0  0  0  0  0
    3.8430   -3.5030   -3.9310 H   0  0  0  0  0  0  0  0  0  0  0  0
    0.7260   -3.1980   -1.0050 H   0  0  0  0  0  0  0  0  0  0  0  0
    2.6420   -5.3690   -5.0200 H   0  0  0  0  0  0  0  0  0  0  0  0
   -0.4700   -5.0680   -2.0920 H   0  0  0  0  0  0  0  0  0  0  0  0
    2.1780    1.6310   -0.4190 H   0  0  0  0  0  0  0  0  0  0  0  0
    0.8030    3.4590    0.4890 H   0  0  0  0  0  0  0  0  0  0  0  0
   -0.7860   -2.2240   -0.3520 H   0  0  0  0  0  0  0  0  0  0  0  0
   -1.5350    3.0460    1.1470 H   0  0  0  0  0  0  0  0  0  0  0  0
   -3.4190    1.5860    1.3690 H   0  0  0  0  0  0  0  0  0  0  0  0
   -3.1350   -2.5440    0.3080 H   0  0  0  0  0  0  0  0  0  0  0  0
   -4.4590   -0.6430    1.1620 H   0  0  0  0  0  0  0  0  0  0  0  0
  1  2  1  0  0  0  0
  1  4  1  0  0  0  0
  1  5  2  0  0  0  0
  2  3  1  0  0  0  0
  2 22  1  0  0  0  0
  3  6  2  0  0  0  0
  3 15  1  0  0  0  0
  4  7  1  0  0  0  0
  4 23  1  0  0  0  0
  6  8  1  0  0  0  0
  6 17  1  0  0  0  0
  7 11  2  0  0  0  0
  7 12  1  0  0  0  0
  8 18  2  0  0  0  0
  8 19  1  0  0  0  0
  9 10  1  0  0  0  0
  9 13  2  0  0  0  0
  9 14  1  0  0  0  0
 11 13  1  0  0  0  0
 11 24  1  0  0  0  0
 12 14  2  0  0  0  0
 12 25  1  0  0  0  0
 13 26  1  0  0  0  0
 14 27  1  0  0  0  0
 15 16  2  0  0  0  0
 15 28  1  0  0  0  0
 16 18  1  0  0  0  0
 16 29  1  0  0  0  0
 17 20  2  0  0  0  0
 17 30  1  0  0  0  0
 18 31  1  0  0  0  0
 19 21  2  0  0  0  0
 19 32  1  0  0  0  0
 20 21  1  0  0  0  0
 20 33  1  0  0  0  0
 21 34  1  0  0  0  0
M  END
>  <$CLUSTER>
952

>  <INDEX>
59334

$$$$
Chembridge 5471954
  MOE2020           3D

 32 35  0  0  0  0  0  0  0  0999 V2000
   -4.4910    0.0500   -0.0140 C   0  0  0  0  0  0  0  0  0  0  0  0
   -2.4470   -1.0270    0.5970 N   0  0  0  0  0  0  0  0  0  0  0  0
   -1.7630   -0.0830    0.0520 C   0  0  0  0  0  0  0  0  0  0  0  0
   -3.6950    1.1000   -0.6220 C   0  0  0  0  0  0  0  0  0  0  0  0
   -2.3720    0.9530   -0.5420 O   0  0  0  0  0  0  0  0  0  0  0  0
   -3.8200   -1.0050    0.5900 C   0  0  0  0  0  0  0  0  0  0  0  0
   -5.8880    0.0940   -0.0350 C   0  0  0  0  0  0  0  0  0  0  0  0
   -4.5570   -2.0330    1.1840 C   0  0  0  0  0  0  0  0  0  0  0  0
   -6.6180   -0.9350    0.5600 C   0  0  0  0  0  0  0  0  0  0  0  0
   -5.9530   -1.9990    1.1690 C   0  0  0  0  0  0  0  0  0  0  0  0
   -4.2230    2.0620   -1.1730 O   0  0  0  0  0  0  0  0  0  0  0  0
   -0.3060   -0.0120    0.0080 C   0  0  0  0  0  0  0  0  0  0  0  0
   -8.0320   -0.9090    0.5500 C   0  0  0  0  0  0  0  0  0  0  0  0
   -6.7030   -3.0400    1.7710 C   0  0  0  0  0  0  0  0  0  0  0  0
    0.3590    1.0540   -0.6070 C   0  0  0  0  0  0  0  0  0  0  0  0
    0.4410   -1.0400    0.5970 C   0  0  0  0  0  0  0  0  0  0  0  0
   -8.0980   -3.0010    1.7540 C   0  0  0  0  0  0  0  0  0  0  0  0
   -8.7600   -1.9380    1.1450 C   0  0  0  0  0  0  0  0  0  0  0  0
    1.8370   -1.0010    0.5710 C   0  0  0  0  0  0  0  0  0  0  0  0
    1.7560    1.0920   -0.6320 C   0  0  0  0  0  0  0  0  0  0  0  0
    2.4940    0.0650   -0.0440 C   0  0  0  0  0  0  0  0  0  0  0  0
   -6.3990    0.9190   -0.5090 H   0  0  0  0  0  0  0  0  0  0  0  0
   -4.0450   -2.8580    1.6570 H   0  0  0  0  0  0  0  0  0  0  0  0
   -8.5510   -0.0870    0.0790 H   0  0  0  0  0  0  0  0  0  0  0  0
   -6.1930   -3.8660    2.2440 H   0  0  0  0  0  0  0  0  0  0  0  0
   -0.2090    1.8510   -1.0640 H   0  0  0  0  0  0  0  0  0  0  0  0
   -0.0650   -1.8670    1.0740 H   0  0  0  0  0  0  0  0  0  0  0  0
   -8.6650   -3.7970    2.2140 H   0  0  0  0  0  0  0  0  0  0  0  0
   -9.8400   -1.9110    1.1340 H   0  0  0  0  0  0  0  0  0  0  0  0
    2.4080   -1.7960    1.0270 H   0  0  0  0  0  0  0  0  0  0  0  0
    2.2650    1.9180   -1.1070 H   0  0  0  0  0  0  0  0  0  0  0  0
    3.5730    0.0950   -0.0650 H   0  0  0  0  0  0  0  0  0  0  0  0
  1  4  1  0  0  0  0
  1  6  2  0  0  0  0
  1  7  1  0  0  0  0
  2  3  2  0  0  0  0
  2  6  1  0  0  0  0
  3  5  1  0  0  0  0
  3 12  1  0  0  0  0
  4  5  1  0  0  0  0
  4 11  2  0  0  0  0
  6  8  1  0  0  0  0
  7  9  2  0  0  0  0
  7 22  1  0  0  0  0
  8 10  2  0  0  0  0
  8 23  1  0  0  0  0
  9 10  1  0  0  0  0
  9 13  1  0  0  0  0
 10 14  1  0  0  0  0
 12 15  1  0  0  0  0
 12 16  2  0  0  0  0
 13 18  2  0  0  0  0
 13 24  1  0  0  0  0
 14 17  2  0  0  0  0
 14 25  1  0  0  0  0
 15 20  2  0  0  0  0
 15 26  1  0  0  0  0
 16 19  1  0  0  0  0
 16 27  1  0  0  0  0
 17 18  1  0  0  0  0
 17 28  1  0  0  0  0
 18 29  1  0  0  0  0
 19 21  2  0  0  0  0
 19 30  1  0  0  0  0
 20 21  1  0  0  0  0
 20 31  1  0  0  0  0
 21 32  1  0  0  0  0
M  END
>  <$CLUSTER>
953

>  <INDEX>
46870

$$$$
ASDI 100086207
  MOE2020           3D

 37 38  0  0  0  0  0  0  0  0999 V2000
    1.5170    2.5300    0.9830 C   0  0  0  0  0  0  0  0  0  0  0  0
    0.5450    1.6560    0.6010 N   0  0  0  0  0  0  0  0  0  0  0  0
    1.6740    2.6870    2.3440 N   0  0  0  0  0  0  0  0  0  0  0  0
    2.5230    3.4580    3.1420 C   0  0  0  0  0  0  0  0  0  0  0  0
    2.4420    3.3940    4.5530 C   0  0  0  0  0  0  0  0  0  0  0  0
    2.2190    3.1690    0.1960 O   0  0  0  0  0  0  0  0  0  0  0  0
    3.3080    4.1820    5.3330 C   0  0  0  0  0  0  0  0  0  0  0  0
   -0.2610    0.7980    1.4750 C   0  0  0  0  0  0  0  0  0  0  0  0
    0.1630    1.4860   -0.8050 C   0  0  0  0  0  0  0  0  0  0  0  0
    3.2190    4.1090    7.0360 Cl  0  0  0  0  0  0  0  0  0  0  0  0
    0.3310    0.0370   -1.2590 C   0  0  0  0  0  0  0  0  0  0  0  0
   -0.1100   -0.6770    1.1070 C   0  0  0  0  0  0  0  0  0  0  0  0
    3.4690    4.3130    2.5580 C   0  0  0  0  0  0  0  0  0  0  0  0
   -0.4620   -0.9230   -0.3640 C   0  0  0  0  0  0  0  0  0  0  0  0
    1.4560    2.5040    5.2620 C   0  0  0  0  0  0  0  0  0  0  0  0
    4.3210    5.0890    3.3490 C   0  0  0  0  0  0  0  0  0  0  0  0
    4.2420    5.0240    4.7350 C   0  0  0  0  0  0  0  0  0  0  0  0
   -0.2060   -2.3770   -0.7550 C   0  0  0  0  0  0  0  0  0  0  0  0
    1.0350    2.1200    2.8820 H   0  0  0  0  0  0  0  0  0  0  0  0
   -1.3090    1.0810    1.3800 H   0  0  0  0  0  0  0  0  0  0  0  0
    0.0620    0.9400    2.5060 H   0  0  0  0  0  0  0  0  0  0  0  0
    0.7930    2.1260   -1.4230 H   0  0  0  0  0  0  0  0  0  0  0  0
   -0.8810    1.7770   -0.9260 H   0  0  0  0  0  0  0  0  0  0  0  0
    1.3870   -0.2280   -1.2160 H   0  0  0  0  0  0  0  0  0  0  0  0
   -0.0260   -0.0570   -2.2850 H   0  0  0  0  0  0  0  0  0  0  0  0
   -0.7750   -1.2700    1.7350 H   0  0  0  0  0  0  0  0  0  0  0  0
    0.9220   -0.9820    1.2810 H   0  0  0  0  0  0  0  0  0  0  0  0
    3.5400    4.3730    1.4820 H   0  0  0  0  0  0  0  0  0  0  0  0
   -1.5260   -0.7310   -0.5040 H   0  0  0  0  0  0  0  0  0  0  0  0
    0.8610    1.9620    4.5260 H   0  0  0  0  0  0  0  0  0  0  0  0
    0.7990    3.1120    5.8830 H   0  0  0  0  0  0  0  0  0  0  0  0
    1.9940    1.7930    5.8890 H   0  0  0  0  0  0  0  0  0  0  0  0
    5.0430    5.7420    2.8810 H   0  0  0  0  0  0  0  0  0  0  0  0
    4.9020    5.6230    5.3450 H   0  0  0  0  0  0  0  0  0  0  0  0
    0.8520   -2.6070   -0.6270 H   0  0  0  0  0  0  0  0  0  0  0  0
   -0.4870   -2.5280   -1.7970 H   0  0  0  0  0  0  0  0  0  0  0  0
   -0.8000   -3.0340   -0.1190 H   0  0  0  0  0  0  0  0  0  0  0  0
  1  2  1  0  0  0  0
  1  3  1  0  0  0  0
  1  6  2  0  0  0  0
  2  8  1  0  0  0  0
  2  9  1  0  0  0  0
  3  4  1  0  0  0  0
  3 19  1  0  0  0  0
  4  5  2  0  0  0  0
  4 13  1  0  0  0  0
  5  7  1  0  0  0  0
  5 15  1  0  0  0  0
  7 10  1  0  0  0  0
  7 17  2  0  0  0  0
  8 12  1  0  0  0  0
  8 20  1  0  0  0  0
  8 21  1  0  0  0  0
  9 11  1  0  0  0  0
  9 22  1  0  0  0  0
  9 23  1  0  0  0  0
 11 14  1  0  0  0  0
 11 24  1  0  0  0  0
 11 25  1  0  0  0  0
 12 14  1  0  0  0  0
 12 26  1  0  0  0  0
 12 27  1  0  0  0  0
 13 16  2  0  0  0  0
 13 28  1  0  0  0  0
 14 18  1  0  0  0  0
 14 29  1  0  0  0  0
 15 30  1  0  0  0  0
 15 31  1  0  0  0  0
 15 32  1  0  0  0  0
 16 17  1  0  0  0  0
 16 33  1  0  0  0  0
 17 34  1  0  0  0  0
 18 35  1  0  0  0  0
 18 36  1  0  0  0  0
 18 37  1  0  0  0  0
M  END
>  <$CLUSTER>
954

>  <INDEX>
4861

$$$$
Enamine T0515-0185
  MOE2020           3D

 32 32  0  0  0  0  0  0  0  0999 V2000
    0.7450   -0.6140    0.2520 C   0  0  0  0  0  0  0  0  0  0  0  0
   -0.4480   -1.0820   -0.3410 N   0  0  0  0  0  0  0  0  0  0  0  0
    0.6880    0.6940    0.7760 N   0  0  0  0  0  0  0  0  0  0  0  0
   -1.6060   -0.3020   -0.4510 C   0  0  0  0  0  0  0  0  0  0  0  0
   -0.4310    1.5250    0.7090 C   0  0  0  0  0  0  0  0  0  0  0  0
   -1.6030    0.9420    0.0500 C   0  0  0  0  0  0  0  0  0  0  0  0
    1.7730   -1.2980    0.3030 O   0  0  0  0  0  0  0  0  0  0  0  0
   -0.4960    2.6720    1.1410 O   0  0  0  0  0  0  0  0  0  0  0  0
   -2.7580   -0.7470   -1.0620 N   0  0  0  0  0  0  0  0  0  0  0  0
   -0.4440   -2.4550   -0.8730 C   0  0  0  0  0  0  0  0  0  0  0  0
    1.8910    1.2260    1.4270 C   0  0  0  0  0  0  0  0  0  0  0  0
    2.7980    1.9280    0.4260 C   0  0  0  0  0  0  0  0  0  0  0  0
   -0.1090   -2.4890   -2.3570 C   0  0  0  0  0  0  0  0  0  0  0  0
   -0.1160   -3.8960   -2.9040 C   0  0  0  0  0  0  0  0  0  0  0  0
    4.0480    2.4710    1.0880 C   0  0  0  0  0  0  0  0  0  0  0  0
   -2.5000    1.5380   -0.0360 H   0  0  0  0  0  0  0  0  0  0  0  0
   -3.5640   -0.1420   -1.1210 H   0  0  0  0  0  0  0  0  0  0  0  0
   -2.7960   -1.6780   -1.4510 H   0  0  0  0  0  0  0  0  0  0  0  0
   -1.4310   -2.8930   -0.7250 H   0  0  0  0  0  0  0  0  0  0  0  0
    0.2990   -3.0410   -0.3310 H   0  0  0  0  0  0  0  0  0  0  0  0
    2.4390    0.4030    1.8870 H   0  0  0  0  0  0  0  0  0  0  0  0
    1.5930    1.9380    2.1960 H   0  0  0  0  0  0  0  0  0  0  0  0
    2.2510    2.7540   -0.0280 H   0  0  0  0  0  0  0  0  0  0  0  0
    3.0880    1.2170   -0.3470 H   0  0  0  0  0  0  0  0  0  0  0  0
    0.8810   -2.0590   -2.5050 H   0  0  0  0  0  0  0  0  0  0  0  0
   -0.8470   -1.8970   -2.8980 H   0  0  0  0  0  0  0  0  0  0  0  0
    0.6190   -4.4970   -2.3690 H   0  0  0  0  0  0  0  0  0  0  0  0
    0.1340   -3.8750   -3.9650 H   0  0  0  0  0  0  0  0  0  0  0  0
   -1.1070   -4.3320   -2.7730 H   0  0  0  0  0  0  0  0  0  0  0  0
    3.7680    3.1840    1.8640 H   0  0  0  0  0  0  0  0  0  0  0  0
    4.6670    2.9700    0.3420 H   0  0  0  0  0  0  0  0  0  0  0  0
    4.6090    1.6500    1.5350 H   0  0  0  0  0  0  0  0  0  0  0  0
  1  2  1  0  0  0  0
  1  3  1  0  0  0  0
  1  7  2  0  0  0  0
  2  4  1  0  0  0  0
  2 10  1  0  0  0  0
  3  5  1  0  0  0  0
  3 11  1  0  0  0  0
  4  6  2  0  0  0  0
  4  9  1  0  0  0  0
  5  6  1  0  0  0  0
  5  8  2  0  0  0  0
  6 16  1  0  0  0  0
  9 17  1  0  0  0  0
  9 18  1  0  0  0  0
 10 13  1  0  0  0  0
 10 19  1  0  0  0  0
 10 20  1  0  0  0  0
 11 12  1  0  0  0  0
 11 21  1  0  0  0  0
 11 22  1  0  0  0  0
 12 15  1  0  0  0  0
 12 23  1  0  0  0  0
 12 24  1  0  0  0  0
 13 14  1  0  0  0  0
 13 25  1  0  0  0  0
 13 26  1  0  0  0  0
 14 27  1  0  0  0  0
 14 28  1  0  0  0  0
 14 29  1  0  0  0  0
 15 30  1  0  0  0  0
 15 31  1  0  0  0  0
 15 32  1  0  0  0  0
M  END
>  <$CLUSTER>
955

>  <INDEX>
429769

$$$$
Chembridge 5226945
  MOE2020           3D

 31 32  0  0  0  0  0  0  0  0999 V2000
    1.8120   -0.1320    0.0010 C   0  0  0  0  0  0  0  0  0  0  0  0
    0.4900    0.5050   -0.1320 C   0  0  0  0  0  0  0  0  0  0  0  0
   -0.6930   -0.2130    0.0840 C   0  0  0  0  0  0  0  0  0  0  0  0
    2.7010    0.1400   -0.9890 N   0  0  0  0  0  0  0  0  0  0  0  0
   -0.6920   -1.6820    0.3260 C   0  0  0  0  0  0  0  0  0  0  0  0
    6.0020   -0.1910   -2.6260 C   0  0  0  0  0  0  0  0  0  0  0  0
    4.6810    0.1830   -2.3660 C   0  0  0  0  0  0  0  0  0  0  0  0
    4.0250   -0.2640   -1.2100 C   0  0  0  0  0  0  0  0  0  0  0  0
    2.0870   -0.8230    0.9770 O   0  0  0  0  0  0  0  0  0  0  0  0
    6.6810   -1.0150   -1.7340 C   0  0  0  0  0  0  0  0  0  0  0  0
   -0.2860   -2.4340   -0.6140 O   0  0  0  0  0  0  0  0  0  0  0  0
    6.0380   -1.4650   -0.5820 C   0  0  0  0  0  0  0  0  0  0  0  0
    6.9150    0.5060   -4.3540 I   0  0  0  0  0  0  0  0  0  0  0  0
   -1.1740   -2.0900    1.4290 O   0  5  0  0  0  0  0  0  0  0  0  0
    4.7150   -1.0930   -0.3190 C   0  0  0  0  0  0  0  0  0  0  0  0
    0.4390    1.8810   -0.4050 C   0  0  0  0  0  0  0  0  0  0  0  0
   -1.9260    0.4690    0.0310 C   0  0  0  0  0  0  0  0  0  0  0  0
    8.0920   -1.4190   -2.0070 C   0  0  0  0  0  0  0  0  0  0  0  0
   -0.7890    2.5420   -0.4650 C   0  0  0  0  0  0  0  0  0  0  0  0
   -1.9710    1.8370   -0.2430 C   0  0  0  0  0  0  0  0  0  0  0  0
    2.3380    0.7520   -1.7050 H   0  0  0  0  0  0  0  0  0  0  0  0
    4.1600    0.8230   -3.0630 H   0  0  0  0  0  0  0  0  0  0  0  0
    6.5640   -2.1040    0.1110 H   0  0  0  0  0  0  0  0  0  0  0  0
    4.2240   -1.4470    0.5760 H   0  0  0  0  0  0  0  0  0  0  0  0
    1.3540    2.4310   -0.5690 H   0  0  0  0  0  0  0  0  0  0  0  0
   -2.8440   -0.0720    0.2040 H   0  0  0  0  0  0  0  0  0  0  0  0
    8.4220   -0.9740   -2.9460 H   0  0  0  0  0  0  0  0  0  0  0  0
    8.1520   -2.5050   -2.0790 H   0  0  0  0  0  0  0  0  0  0  0  0
    8.7320   -1.0730   -1.1960 H   0  0  0  0  0  0  0  0  0  0  0  0
   -0.8230    3.5990   -0.6830 H   0  0  0  0  0  0  0  0  0  0  0  0
   -2.9210    2.3490   -0.2830 H   0  0  0  0  0  0  0  0  0  0  0  0
  1  2  1  0  0  0  0
  1  4  1  0  0  0  0
  1  9  2  0  0  0  0
  2  3  2  0  0  0  0
  2 16  1  0  0  0  0
  3  5  1  0  0  0  0
  3 17  1  0  0  0  0
  4  8  1  0  0  0  0
  4 21  1  0  0  0  0
  5 11  2  0  0  0  0
  5 14  1  0  0  0  0
  6  7  2  0  0  0  0
  6 10  1  0  0  0  0
  6 13  1  0  0  0  0
  7  8  1  0  0  0  0
  7 22  1  0  0  0  0
  8 15  2  0  0  0  0
 10 12  2  0  0  0  0
 10 18  1  0  0  0  0
 12 15  1  0  0  0  0
 12 23  1  0  0  0  0
 15 24  1  0  0  0  0
 16 19  2  0  0  0  0
 16 25  1  0  0  0  0
 17 20  2  0  0  0  0
 17 26  1  0  0  0  0
 18 27  1  0  0  0  0
 18 28  1  0  0  0  0
 18 29  1  0  0  0  0
 19 20  1  0  0  0  0
 19 30  1  0  0  0  0
 20 31  1  0  0  0  0
M  CHG  1  14  -1
M  END
>  <$CLUSTER>
956

>  <INDEX>
38546

$$$$
Maybridge SCR 00699
  MOE2020           3D

 37 39  0  0  0  0  0  0  0  0999 V2000
   -5.3350    3.0130    0.9530 C   0  0  0  0  0  0  0  0  0  0  0  0
   -6.2600    2.1510    0.5570 N   0  0  0  0  0  0  0  0  0  0  0  0
   -7.4140    2.8050    0.7650 N   0  0  0  0  0  0  0  0  0  0  0  0
   -5.9020    4.2310    1.4180 C   0  0  0  0  0  0  0  0  0  0  0  0
   -3.8610    2.7000    0.9010 C   0  0  0  0  0  0  0  0  0  0  0  0
   -7.2560    4.0550    1.2780 C   0  0  0  0  0  0  0  0  0  0  0  0
    1.1320   -1.3670   -0.4970 N   0  0  0  0  0  0  0  0  0  0  0  0
   -3.6360    1.4270    0.3960 N   0  0  0  0  0  0  0  0  0  0  0  0
    0.0020   -0.6530   -0.2650 C   0  0  0  0  0  0  0  0  0  0  0  0
    0.0340    0.6590    0.2690 C   0  0  0  0  0  0  0  0  0  0  0  0
   -2.3870    0.7780    0.1960 C   0  0  0  0  0  0  0  0  0  0  0  0
   -3.0310    3.5230    1.2740 O   0  0  0  0  0  0  0  0  0  0  0  0
   -1.1580    1.3640    0.4950 C   0  0  0  0  0  0  0  0  0  0  0  0
   -1.2420   -1.2110   -0.5530 C   0  0  0  0  0  0  0  0  0  0  0  0
    2.3210   -0.7810   -0.2000 C   0  0  0  0  0  0  0  0  0  0  0  0
    1.2830    1.2250    0.5600 C   0  0  0  0  0  0  0  0  0  0  0  0
   -2.4290   -0.5100   -0.3280 C   0  0  0  0  0  0  0  0  0  0  0  0
    2.4450    0.4960    0.3230 C   0  0  0  0  0  0  0  0  0  0  0  0
   -8.6650    2.1580    0.4400 C   0  0  0  0  0  0  0  0  0  0  0  0
   -8.2790    4.9330    1.5800 C   0  0  0  0  0  0  0  0  0  0  0  0
    3.5590   -1.5900   -0.4640 C   0  0  0  0  0  0  0  0  0  0  0  0
   -5.3840    5.1000    1.7960 H   0  0  0  0  0  0  0  0  0  0  0  0
   -4.4580    0.8990    0.1400 H   0  0  0  0  0  0  0  0  0  0  0  0
   -1.1230    2.3640    0.9020 H   0  0  0  0  0  0  0  0  0  0  0  0
   -1.2900   -2.2100   -0.9600 H   0  0  0  0  0  0  0  0  0  0  0  0
    1.3440    2.2240    0.9670 H   0  0  0  0  0  0  0  0  0  0  0  0
   -3.3790   -0.9680   -0.5610 H   0  0  0  0  0  0  0  0  0  0  0  0
    3.4170    0.9140    0.5410 H   0  0  0  0  0  0  0  0  0  0  0  0
   -8.4670    1.1610    0.0470 H   0  0  0  0  0  0  0  0  0  0  0  0
   -9.1940    2.7460   -0.3100 H   0  0  0  0  0  0  0  0  0  0  0  0
   -9.2780    2.0800    1.3380 H   0  0  0  0  0  0  0  0  0  0  0  0
   -9.2370    4.4700    1.3440 H   0  0  0  0  0  0  0  0  0  0  0  0
   -8.1620    5.8440    0.9930 H   0  0  0  0  0  0  0  0  0  0  0  0
   -8.2460    5.1790    2.6410 H   0  0  0  0  0  0  0  0  0  0  0  0
    3.2780   -2.5610   -0.8710 H   0  0  0  0  0  0  0  0  0  0  0  0
    4.1060   -1.7310    0.4680 H   0  0  0  0  0  0  0  0  0  0  0  0
    4.1910   -1.0640   -1.1800 H   0  0  0  0  0  0  0  0  0  0  0  0
  1  2  2  0  0  0  0
  1  4  1  0  0  0  0
  1  5  1  0  0  0  0
  2  3  1  0  0  0  0
  3  6  1  0  0  0  0
  3 19  1  0  0  0  0
  4  6  2  0  0  0  0
  4 22  1  0  0  0  0
  5  8  1  0  0  0  0
  5 12  2  0  0  0  0
  6 20  1  0  0  0  0
  7  9  1  0  0  0  0
  7 15  2  0  0  0  0
  8 11  1  0  0  0  0
  8 23  1  0  0  0  0
  9 10  1  0  0  0  0
  9 14  2  0  0  0  0
 10 13  2  0  0  0  0
 10 16  1  0  0  0  0
 11 13  1  0  0  0  0
 11 17  2  0  0  0  0
 13 24  1  0  0  0  0
 14 17  1  0  0  0  0
 14 25  1  0  0  0  0
 15 18  1  0  0  0  0
 15 21  1  0  0  0  0
 16 18  2  0  0  0  0
 16 26  1  0  0  0  0
 17 27  1  0  0  0  0
 18 28  1  0  0  0  0
 19 29  1  0  0  0  0
 19 30  1  0  0  0  0
 19 31  1  0  0  0  0
 20 32  1  0  0  0  0
 20 33  1  0  0  0  0
 20 34  1  0  0  0  0
 21 35  1  0  0  0  0
 21 36  1  0  0  0  0
 21 37  1  0  0  0  0
M  END
>  <$CLUSTER>
957

>  <INDEX>
624035

$$$$
Enamine T0505-3993
  MOE2020           3D

 41 43  0  0  0  0  0  0  0  0999 V2000
   -0.6820    1.7120   -1.5450 S   0  0  0  0  0  0  0  0  0  0  0  0
   -0.6230   -0.0980    1.9850 C   0  0  0  0  0  0  0  0  0  0  0  0
    0.4710    1.3430   -0.3630 N   0  0  0  0  0  0  0  0  0  0  0  0
    0.2270   -0.7480    0.9750 C   0  0  0  0  0  0  0  0  0  0  0  0
    0.7640   -0.0360   -0.1060 C   0  0  0  0  0  0  0  0  0  0  0  0
   -2.2150    1.1960   -0.7780 C   0  0  0  0  0  0  0  0  0  0  0  0
   -1.7610   -0.7620    2.3160 N   0  0  0  0  0  0  0  0  0  0  0  0
   -0.7110    3.1610   -1.6750 O   0  0  0  0  0  0  0  0  0  0  0  0
   -0.4500    0.8960   -2.7250 O   0  0  0  0  0  0  0  0  0  0  0  0
   -0.3180    0.9830    2.4780 O   0  0  0  0  0  0  0  0  0  0  0  0
   -2.6570   -0.1100   -0.9860 C   0  0  0  0  0  0  0  0  0  0  0  0
   -2.9510    2.1020   -0.0300 C   0  0  0  0  0  0  0  0  0  0  0  0
   -2.8010   -0.4770    3.2120 C   0  0  0  0  0  0  0  0  0  0  0  0
   -4.6120    0.3870    0.3480 C   0  0  0  0  0  0  0  0  0  0  0  0
   -3.8650   -0.5130   -0.4130 C   0  0  0  0  0  0  0  0  0  0  0  0
   -4.1570    1.6920    0.5400 C   0  0  0  0  0  0  0  0  0  0  0  0
   -5.7530   -0.0810    0.8590 F   0  0  0  0  0  0  0  0  0  0  0  0
    0.5200   -2.1120    1.1300 C   0  0  0  0  0  0  0  0  0  0  0  0
    1.5770   -0.7060   -1.0290 C   0  0  0  0  0  0  0  0  0  0  0  0
   -3.8580   -1.3900    3.3310 C   0  0  0  0  0  0  0  0  0  0  0  0
   -2.8230    0.6860    3.9880 C   0  0  0  0  0  0  0  0  0  0  0  0
    1.3360   -2.7660    0.2080 C   0  0  0  0  0  0  0  0  0  0  0  0
    1.8650   -2.0630   -0.8720 C   0  0  0  0  0  0  0  0  0  0  0  0
   -4.9170   -1.1470    4.2100 C   0  0  0  0  0  0  0  0  0  0  0  0
   -3.8840    0.9270    4.8680 C   0  0  0  0  0  0  0  0  0  0  0  0
   -4.9290    0.0130    4.9780 C   0  0  0  0  0  0  0  0  0  0  0  0
    0.9410    2.0760    0.1490 H   0  0  0  0  0  0  0  0  0  0  0  0
   -1.8820   -1.6330    1.8190 H   0  0  0  0  0  0  0  0  0  0  0  0
   -2.0750   -0.7980   -1.5800 H   0  0  0  0  0  0  0  0  0  0  0  0
   -2.5960    3.1120    0.1100 H   0  0  0  0  0  0  0  0  0  0  0  0
   -4.2210   -1.5220   -0.5590 H   0  0  0  0  0  0  0  0  0  0  0  0
   -4.7380    2.3850    1.1300 H   0  0  0  0  0  0  0  0  0  0  0  0
    0.1110   -2.6580    1.9680 H   0  0  0  0  0  0  0  0  0  0  0  0
    1.9850   -0.1670   -1.8710 H   0  0  0  0  0  0  0  0  0  0  0  0
   -3.8540   -2.2920    2.7370 H   0  0  0  0  0  0  0  0  0  0  0  0
   -2.0180    1.4010    3.9080 H   0  0  0  0  0  0  0  0  0  0  0  0
    1.5580   -3.8160    0.3310 H   0  0  0  0  0  0  0  0  0  0  0  0
    2.4980   -2.5670   -1.5870 H   0  0  0  0  0  0  0  0  0  0  0  0
   -5.7250   -1.8590    4.2930 H   0  0  0  0  0  0  0  0  0  0  0  0
   -3.8930    1.8270    5.4650 H   0  0  0  0  0  0  0  0  0  0  0  0
   -5.7460    0.2040    5.6580 H   0  0  0  0  0  0  0  0  0  0  0  0
  1  3  1  0  0  0  0
  1  6  1  0  0  0  0
  1  8  2  0  0  0  0
  1  9  2  0  0  0  0
  2  4  1  0  0  0  0
  2  7  1  0  0  0  0
  2 10  2  0  0  0  0
  3  5  1  0  0  0  0
  3 27  1  0  0  0  0
  4  5  2  0  0  0  0
  4 18  1  0  0  0  0
  5 19  1  0  0  0  0
  6 11  2  0  0  0  0
  6 12  1  0  0  0  0
  7 13  1  0  0  0  0
  7 28  1  0  0  0  0
 11 15  1  0  0  0  0
 11 29  1  0  0  0  0
 12 16  2  0  0  0  0
 12 30  1  0  0  0  0
 13 20  2  0  0  0  0
 13 21  1  0  0  0  0
 14 15  2  0  0  0  0
 14 16  1  0  0  0  0
 14 17  1  0  0  0  0
 15 31  1  0  0  0  0
 16 32  1  0  0  0  0
 18 22  2  0  0  0  0
 18 33  1  0  0  0  0
 19 23  2  0  0  0  0
 19 34  1  0  0  0  0
 20 24  1  0  0  0  0
 20 35  1  0  0  0  0
 21 25  2  0  0  0  0
 21 36  1  0  0  0  0
 22 23  1  0  0  0  0
 22 37  1  0  0  0  0
 23 38  1  0  0  0  0
 24 26  2  0  0  0  0
 24 39  1  0  0  0  0
 25 26  1  0  0  0  0
 25 40  1  0  0  0  0
 26 41  1  0  0  0  0
M  END
>  <$CLUSTER>
958

>  <INDEX>
411247

$$$$
Specs AM-970/41069476
  MOE2020           3D

 30 31  0  0  0  0  0  0  0  0999 V2000
   -0.2590    0.0060   -0.3100 C   0  0  0  0  0  0  0  0  0  0  0  0
   -0.2180    0.6040   -1.6080 N   0  3  0  0  0  0  0  0  0  0  0  0
    0.7280    0.0820    0.6670 C   0  0  0  0  0  0  0  0  0  0  0  0
   -0.9940   -1.1680    1.4780 N   0  0  0  0  0  0  0  0  0  0  0  0
   -1.3050   -0.7720    0.2420 C   0  0  0  0  0  0  0  0  0  0  0  0
    0.2540   -0.6490    1.7380 O   0  0  0  0  0  0  0  0  0  0  0  0
    1.9820    0.7570    0.6810 C   0  0  0  0  0  0  0  0  0  0  0  0
    0.8660    0.5990   -2.2020 O   0  5  0  0  0  0  0  0  0  0  0  0
    2.8250    0.6480    1.7140 C   0  0  0  0  0  0  0  0  0  0  0  0
   -1.2810    1.0660   -2.0400 O   0  0  0  0  0  0  0  0  0  0  0  0
    4.1790    1.3530    1.7710 C   0  0  0  0  0  0  0  0  0  0  0  0
    6.6680    2.5750    2.0250 C   0  0  0  0  0  0  0  0  0  0  0  0
    4.4440    2.5170    1.0740 C   0  0  0  0  0  0  0  0  0  0  0  0
    5.1390    0.7990    2.6160 C   0  0  0  0  0  0  0  0  0  0  0  0
    5.6950    3.1290    1.1960 C   0  0  0  0  0  0  0  0  0  0  0  0
    6.3890    1.4120    2.7370 C   0  0  0  0  0  0  0  0  0  0  0  0
   -2.5970   -1.1740   -0.3600 C   0  0  0  0  0  0  0  0  0  0  0  0
    8.0030    3.2320    2.1460 C   0  0  0  0  0  0  0  0  0  0  0  0
    2.2590    1.3720   -0.1630 H   0  0  0  0  0  0  0  0  0  0  0  0
    2.5330    0.0300    2.5500 H   0  0  0  0  0  0  0  0  0  0  0  0
    3.6880    2.9520    0.4380 H   0  0  0  0  0  0  0  0  0  0  0  0
    4.9180   -0.0990    3.1740 H   0  0  0  0  0  0  0  0  0  0  0  0
    5.9080    4.0340    0.6460 H   0  0  0  0  0  0  0  0  0  0  0  0
    7.1400    0.9830    3.3840 H   0  0  0  0  0  0  0  0  0  0  0  0
   -2.6740   -0.7600   -1.3650 H   0  0  0  0  0  0  0  0  0  0  0  0
   -3.4160   -0.7960    0.2520 H   0  0  0  0  0  0  0  0  0  0  0  0
   -2.6520   -2.2610   -0.4100 H   0  0  0  0  0  0  0  0  0  0  0  0
    8.0280    4.1220    1.5170 H   0  0  0  0  0  0  0  0  0  0  0  0
    8.7800    2.5380    1.8250 H   0  0  0  0  0  0  0  0  0  0  0  0
    8.1760    3.5150    3.1840 H   0  0  0  0  0  0  0  0  0  0  0  0
  1  2  1  0  0  0  0
  1  3  2  0  0  0  0
  1  5  1  0  0  0  0
  2  8  1  0  0  0  0
  2 10  2  0  0  0  0
  3  6  1  0  0  0  0
  3  7  1  0  0  0  0
  4  5  2  0  0  0  0
  4  6  1  0  0  0  0
  5 17  1  0  0  0  0
  7  9  2  0  0  0  0
  7 19  1  0  0  0  0
  9 11  1  0  0  0  0
  9 20  1  0  0  0  0
 11 13  2  0  0  0  0
 11 14  1  0  0  0  0
 12 15  2  0  0  0  0
 12 16  1  0  0  0  0
 12 18  1  0  0  0  0
 13 15  1  0  0  0  0
 13 21  1  0  0  0  0
 14 16  2  0  0  0  0
 14 22  1  0  0  0  0
 15 23  1  0  0  0  0
 16 24  1  0  0  0  0
 17 25  1  0  0  0  0
 17 26  1  0  0  0  0
 17 27  1  0  0  0  0
 18 28  1  0  0  0  0
 18 29  1  0  0  0  0
 18 30  1  0  0  0  0
M  CHG  1   2   1
M  CHG  1   8  -1
M  END
>  <$CLUSTER>
959

>  <INDEX>
505435

$$$$
Maybridge HTS 07425
  MOE2020           3D

 39 41  0  0  0  0  0  0  0  0999 V2000
    0.9050   -0.2510    0.0810 C   0  0  0  0  0  0  0  0  0  0  0  0
   -0.2950    0.3530   -0.2690 N   0  0  0  0  0  0  0  0  0  0  0  0
   -1.2570   -0.1070    0.6290 C   0  0  0  0  0  0  0  0  0  0  0  0
   -0.7570   -0.9920    1.4610 N   0  0  0  0  0  0  0  0  0  0  0  0
    0.5680   -1.1070    1.1230 C   0  0  0  0  0  0  0  0  0  0  0  0
    2.2120   -0.0720   -0.5200 C   0  0  0  0  0  0  0  0  0  0  0  0
   -0.6000    1.2420   -1.3040 C   0  0  0  0  0  0  0  0  0  0  0  0
   -2.5810    0.4060    0.4990 C   0  0  0  0  0  0  0  0  0  0  0  0
    4.7810    2.0180   -0.5780 C   0  0  0  0  0  0  0  0  0  0  0  0
    2.5470    1.2290   -0.8300 N   0  0  0  0  0  0  0  0  0  0  0  0
    3.7590    1.5770   -1.3870 N   0  0  0  0  0  0  0  0  0  0  0  0
   -1.8540    1.7070   -1.4310 C   0  0  0  0  0  0  0  0  0  0  0  0
   -2.8680    1.2770   -0.4860 C   0  0  0  0  0  0  0  0  0  0  0  0
    3.0020   -0.9980   -0.6980 O   0  0  0  0  0  0  0  0  0  0  0  0
    4.7060    2.1760    0.6410 O   0  0  0  0  0  0  0  0  0  0  0  0
    6.0390    2.3240   -1.3490 C   0  0  0  0  0  0  0  0  0  0  0  0
    1.4400   -2.0370    1.8760 C   0  0  0  0  0  0  0  0  0  0  0  0
   -4.2500    1.8430   -0.6510 C   0  0  0  0  0  0  0  0  0  0  0  0
    7.2470    2.2670   -0.5950 C   0  0  0  0  0  0  0  0  0  0  0  0
    6.0690    2.6950   -2.6640 C   0  0  0  0  0  0  0  0  0  0  0  0
    7.2840    2.9810   -3.2910 C   0  0  0  0  0  0  0  0  0  0  0  0
    8.4590    2.5530   -1.2270 C   0  0  0  0  0  0  0  0  0  0  0  0
    8.4780    2.9080   -2.5740 C   0  0  0  0  0  0  0  0  0  0  0  0
    0.1680    1.5530   -1.9970 H   0  0  0  0  0  0  0  0  0  0  0  0
   -3.3520    0.0960    1.1890 H   0  0  0  0  0  0  0  0  0  0  0  0
    1.8750    1.9590   -0.6410 H   0  0  0  0  0  0  0  0  0  0  0  0
    3.8960    1.5090   -2.3850 H   0  0  0  0  0  0  0  0  0  0  0  0
   -2.1050    2.3930   -2.2270 H   0  0  0  0  0  0  0  0  0  0  0  0
    2.4510   -1.9960    1.4710 H   0  0  0  0  0  0  0  0  0  0  0  0
    1.0530   -3.0520    1.7850 H   0  0  0  0  0  0  0  0  0  0  0  0
    1.4580   -1.7480    2.9270 H   0  0  0  0  0  0  0  0  0  0  0  0
   -4.2650    2.5230   -1.5030 H   0  0  0  0  0  0  0  0  0  0  0  0
   -4.5310    2.3860    0.2520 H   0  0  0  0  0  0  0  0  0  0  0  0
   -4.9570    1.0310   -0.8220 H   0  0  0  0  0  0  0  0  0  0  0  0
    7.2250    2.0060    0.4530 H   0  0  0  0  0  0  0  0  0  0  0  0
    5.1470    2.7680   -3.2220 H   0  0  0  0  0  0  0  0  0  0  0  0
    7.2990    3.2600   -4.3340 H   0  0  0  0  0  0  0  0  0  0  0  0
    9.3830    2.4990   -0.6710 H   0  0  0  0  0  0  0  0  0  0  0  0
    9.4160    3.1260   -3.0620 H   0  0  0  0  0  0  0  0  0  0  0  0
  1  2  1  0  0  0  0
  1  5  2  0  0  0  0
  1  6  1  0  0  0  0
  2  3  1  0  0  0  0
  2  7  1  0  0  0  0
  3  4  2  0  0  0  0
  3  8  1  0  0  0  0
  4  5  1  0  0  0  0
  5 17  1  0  0  0  0
  6 10  1  0  0  0  0
  6 14  2  0  0  0  0
  7 12  2  0  0  0  0
  7 24  1  0  0  0  0
  8 13  2  0  0  0  0
  8 25  1  0  0  0  0
  9 11  1  0  0  0  0
  9 15  2  0  0  0  0
  9 16  1  0  0  0  0
 10 11  1  0  0  0  0
 10 26  1  0  0  0  0
 11 27  1  0  0  0  0
 12 13  1  0  0  0  0
 12 28  1  0  0  0  0
 13 18  1  0  0  0  0
 16 19  1  0  0  0  0
 16 20  2  0  0  0  0
 17 29  1  0  0  0  0
 17 30  1  0  0  0  0
 17 31  1  0  0  0  0
 18 32  1  0  0  0  0
 18 33  1  0  0  0  0
 18 34  1  0  0  0  0
 19 22  2  0  0  0  0
 19 35  1  0  0  0  0
 20 21  1  0  0  0  0
 20 36  1  0  0  0  0
 21 23  2  0  0  0  0
 21 37  1  0  0  0  0
 22 23  1  0  0  0  0
 22 38  1  0  0  0  0
 23 39  1  0  0  0  0
M  END
>  <$CLUSTER>
960

>  <INDEX>
551916

$$$$
Chem T&I SHCLME-002292
  MOE2020           3D

 46 47  0  0  0  0  0  0  0  0999 V2000
   -0.3160   -0.1640   -0.4710 N   0  0  0  0  0  0  0  0  0  0  0  0
   -0.2880    0.2380    0.8490 C   0  0  0  0  0  0  0  0  0  0  0  0
    0.9430    0.1080    1.3060 N   0  0  0  0  0  0  0  0  0  0  0  0
    0.9750   -0.5130   -0.7720 C   0  0  0  0  0  0  0  0  0  0  0  0
    1.7360   -0.3580    0.2870 N   0  0  0  0  0  0  0  0  0  0  0  0
    4.1500   -2.4070    2.5610 C   0  0  0  0  0  0  0  0  0  0  0  0
    3.9600   -3.0000    1.2940 C   0  0  0  0  0  0  0  0  0  0  0  0
    4.0440   -0.9440    2.7550 C   0  0  0  0  0  0  0  0  0  0  0  0
    3.6990   -2.2220    0.1490 N   0  0  0  0  0  0  0  0  0  0  0  0
    1.4860   -1.0640   -2.3320 S   0  0  0  0  0  0  0  0  0  0  0  0
    3.5280   -2.5320   -1.1570 C   0  0  0  0  0  0  0  0  0  0  0  0
    3.1370   -0.3120    2.2250 O   0  0  0  0  0  0  0  0  0  0  0  0
   -1.4780   -0.2060   -1.3380 C   0  0  0  0  0  0  0  0  0  0  0  0
   -1.4720    0.7260    1.6310 C   0  0  0  0  0  0  0  0  0  0  0  0
    3.5130   -3.6860   -1.5710 O   0  0  0  0  0  0  0  0  0  0  0  0
    3.2510   -1.3310   -2.0560 C   0  0  0  0  0  0  0  0  0  0  0  0
   -1.6840    1.0940   -2.0970 C   0  0  0  0  0  0  0  0  0  0  0  0
    5.0230   -0.3730    3.5370 N   0  0  0  0  0  0  0  0  0  0  0  0
   -1.7570    1.1970   -3.4110 C   0  0  0  0  0  0  0  0  0  0  0  0
    4.4100   -3.2000    3.6900 C   0  0  0  0  0  0  0  0  0  0  0  0
    4.0510   -4.3960    1.1980 C   0  0  0  0  0  0  0  0  0  0  0  0
   -1.0780    1.8870    2.5470 C   0  0  0  0  0  0  0  0  0  0  0  0
   -2.0750   -0.4170    2.4470 C   0  0  0  0  0  0  0  0  0  0  0  0
    4.4960   -4.5850    3.5680 C   0  0  0  0  0  0  0  0  0  0  0  0
    4.3180   -5.1800    2.3250 C   0  0  0  0  0  0  0  0  0  0  0  0
    3.6240   -1.2330    0.3420 H   0  0  0  0  0  0  0  0  0  0  0  0
   -2.3610   -0.3990   -0.7300 H   0  0  0  0  0  0  0  0  0  0  0  0
   -1.3480   -1.0140   -2.0580 H   0  0  0  0  0  0  0  0  0  0  0  0
   -2.2220    1.0880    0.9280 H   0  0  0  0  0  0  0  0  0  0  0  0
    3.6700   -0.4400   -1.5880 H   0  0  0  0  0  0  0  0  0  0  0  0
    3.7340   -1.4970   -3.0190 H   0  0  0  0  0  0  0  0  0  0  0  0
   -1.7780    2.0010   -1.5180 H   0  0  0  0  0  0  0  0  0  0  0  0
    5.0200    0.6230    3.7020 H   0  0  0  0  0  0  0  0  0  0  0  0
    5.7440   -0.9510    3.9460 H   0  0  0  0  0  0  0  0  0  0  0  0
   -1.9050    2.1640   -3.8690 H   0  0  0  0  0  0  0  0  0  0  0  0
   -1.6680    0.3150   -4.0280 H   0  0  0  0  0  0  0  0  0  0  0  0
    4.5440   -2.7350    4.6560 H   0  0  0  0  0  0  0  0  0  0  0  0
    3.9130   -4.8730    0.2390 H   0  0  0  0  0  0  0  0  0  0  0  0
   -0.3270    1.5480    3.2610 H   0  0  0  0  0  0  0  0  0  0  0  0
   -1.9580    2.2400    3.0850 H   0  0  0  0  0  0  0  0  0  0  0  0
   -0.6690    2.7000    1.9470 H   0  0  0  0  0  0  0  0  0  0  0  0
   -1.3340   -0.7880    3.1550 H   0  0  0  0  0  0  0  0  0  0  0  0
   -2.3740   -1.2230    1.7770 H   0  0  0  0  0  0  0  0  0  0  0  0
   -2.9470   -0.0540    2.9910 H   0  0  0  0  0  0  0  0  0  0  0  0
    4.7000   -5.1940    4.4360 H   0  0  0  0  0  0  0  0  0  0  0  0
    4.3860   -6.2540    2.2290 H   0  0  0  0  0  0  0  0  0  0  0  0
  1  2  1  0  0  0  0
  1  4  1  0  0  0  0
  1 13  1  0  0  0  0
  2  3  2  0  0  0  0
  2 14  1  0  0  0  0
  3  5  1  0  0  0  0
  4  5  2  0  0  0  0
  4 10  1  0  0  0  0
  6  7  2  0  0  0  0
  6  8  1  0  0  0  0
  6 20  1  0  0  0  0
  7  9  1  0  0  0  0
  7 21  1  0  0  0  0
  8 12  2  0  0  0  0
  8 18  1  0  0  0  0
  9 11  1  0  0  0  0
  9 26  1  0  0  0  0
 10 16  1  0  0  0  0
 11 15  2  0  0  0  0
 11 16  1  0  0  0  0
 13 17  1  0  0  0  0
 13 27  1  0  0  0  0
 13 28  1  0  0  0  0
 14 22  1  0  0  0  0
 14 23  1  0  0  0  0
 14 29  1  0  0  0  0
 16 30  1  0  0  0  0
 16 31  1  0  0  0  0
 17 19  2  0  0  0  0
 17 32  1  0  0  0  0
 18 33  1  0  0  0  0
 18 34  1  0  0  0  0
 19 35  1  0  0  0  0
 19 36  1  0  0  0  0
 20 24  2  0  0  0  0
 20 37  1  0  0  0  0
 21 25  2  0  0  0  0
 21 38  1  0  0  0  0
 22 39  1  0  0  0  0
 22 40  1  0  0  0  0
 22 41  1  0  0  0  0
 23 42  1  0  0  0  0
 23 43  1  0  0  0  0
 23 44  1  0  0  0  0
 24 25  1  0  0  0  0
 24 45  1  0  0  0  0
 25 46  1  0  0  0  0
M  END
>  <$CLUSTER>
961

>  <INDEX>
627576

$$$$
Chem T&I SHCLME-032725
  MOE2020           3D

 50 52  0  0  0  0  0  0  0  0999 V2000
   -0.3160   -0.1640   -0.4710 N   0  0  0  0  0  0  0  0  0  0  0  0
   -0.2880    0.2380    0.8490 C   0  0  0  0  0  0  0  0  0  0  0  0
    0.9430    0.1080    1.3060 N   0  0  0  0  0  0  0  0  0  0  0  0
    0.9750   -0.5130   -0.7720 C   0  0  0  0  0  0  0  0  0  0  0  0
    3.9540   -3.0000    1.2470 C   0  0  0  0  0  0  0  0  0  0  0  0
    1.7360   -0.3580    0.2870 N   0  0  0  0  0  0  0  0  0  0  0  0
    4.0590   -4.7000    1.0950 S   0  0  0  0  0  0  0  0  0  0  0  0
    4.1320   -2.5600    2.4760 N   0  0  0  0  0  0  0  0  0  0  0  0
    4.3660   -3.5840    3.3730 N   0  0  0  0  0  0  0  0  0  0  0  0
    3.6980   -2.2230    0.1500 N   0  0  0  0  0  0  0  0  0  0  0  0
    4.3530   -4.7580    2.7800 C   0  0  0  0  0  0  0  0  0  0  0  0
    1.4860   -1.0640   -2.3320 S   0  0  0  0  0  0  0  0  0  0  0  0
    3.5270   -2.5320   -1.1570 C   0  0  0  0  0  0  0  0  0  0  0  0
   -1.4720    0.7260    1.6310 C   0  0  0  0  0  0  0  0  0  0  0  0
   -1.4780   -0.2060   -1.3380 C   0  0  0  0  0  0  0  0  0  0  0  0
    3.5120   -3.6860   -1.5710 O   0  0  0  0  0  0  0  0  0  0  0  0
    3.2510   -1.3310   -2.0560 C   0  0  0  0  0  0  0  0  0  0  0  0
   -1.6840    1.0940   -2.0970 C   0  0  0  0  0  0  0  0  0  0  0  0
   -1.7560    1.1980   -3.4110 C   0  0  0  0  0  0  0  0  0  0  0  0
    4.5750   -6.0610    3.4850 C   0  0  0  0  0  0  0  0  0  0  0  0
   -1.0780    1.8870    2.5470 C   0  0  0  0  0  0  0  0  0  0  0  0
   -2.0750   -0.4170    2.4470 C   0  0  0  0  0  0  0  0  0  0  0  0
    3.2830   -6.6000    4.0800 C   0  0  0  0  0  0  0  0  0  0  0  0
   -2.2520    2.3660    3.4060 C   0  0  0  0  0  0  0  0  0  0  0  0
   -3.2570    0.0520    3.3100 C   0  0  0  0  0  0  0  0  0  0  0  0
   -2.8610    1.2210    4.2080 C   0  0  0  0  0  0  0  0  0  0  0  0
    3.6230   -1.2360    0.3530 H   0  0  0  0  0  0  0  0  0  0  0  0
   -2.2220    1.0880    0.9280 H   0  0  0  0  0  0  0  0  0  0  0  0
   -2.3610   -0.3990   -0.7300 H   0  0  0  0  0  0  0  0  0  0  0  0
   -1.3480   -1.0140   -2.0580 H   0  0  0  0  0  0  0  0  0  0  0  0
    3.6700   -0.4400   -1.5880 H   0  0  0  0  0  0  0  0  0  0  0  0
    3.7340   -1.4970   -3.0190 H   0  0  0  0  0  0  0  0  0  0  0  0
   -1.7790    2.0010   -1.5180 H   0  0  0  0  0  0  0  0  0  0  0  0
   -1.9040    2.1650   -3.8690 H   0  0  0  0  0  0  0  0  0  0  0  0
   -1.6660    0.3160   -4.0280 H   0  0  0  0  0  0  0  0  0  0  0  0
    5.2990   -5.9110    4.2860 H   0  0  0  0  0  0  0  0  0  0  0  0
    4.9670   -6.7870    2.7730 H   0  0  0  0  0  0  0  0  0  0  0  0
   -0.7300    2.7170    1.9320 H   0  0  0  0  0  0  0  0  0  0  0  0
   -0.2720    1.5590    3.2040 H   0  0  0  0  0  0  0  0  0  0  0  0
   -1.3050   -0.8280    3.0990 H   0  0  0  0  0  0  0  0  0  0  0  0
   -2.4240   -1.1910    1.7640 H   0  0  0  0  0  0  0  0  0  0  0  0
    2.8840   -5.8800    4.7940 H   0  0  0  0  0  0  0  0  0  0  0  0
    3.4830   -7.5430    4.5880 H   0  0  0  0  0  0  0  0  0  0  0  0
    2.5570   -6.7630    3.2840 H   0  0  0  0  0  0  0  0  0  0  0  0
   -3.0170    2.7890    2.7560 H   0  0  0  0  0  0  0  0  0  0  0  0
   -1.8970    3.1320    4.0960 H   0  0  0  0  0  0  0  0  0  0  0  0
   -3.5920   -0.7770    3.9340 H   0  0  0  0  0  0  0  0  0  0  0  0
   -4.0710    0.3670    2.6560 H   0  0  0  0  0  0  0  0  0  0  0  0
   -3.7480    1.5850    4.7260 H   0  0  0  0  0  0  0  0  0  0  0  0
   -2.1310    0.8740    4.9390 H   0  0  0  0  0  0  0  0  0  0  0  0
  1  2  1  0  0  0  0
  1  4  1  0  0  0  0
  1 15  1  0  0  0  0
  2  3  2  0  0  0  0
  2 14  1  0  0  0  0
  3  6  1  0  0  0  0
  4  6  2  0  0  0  0
  4 12  1  0  0  0  0
  5  7  1  0  0  0  0
  5  8  2  0  0  0  0
  5 10  1  0  0  0  0
  7 11  1  0  0  0  0
  8  9  1  0  0  0  0
  9 11  2  0  0  0  0
 10 13  1  0  0  0  0
 10 27  1  0  0  0  0
 11 20  1  0  0  0  0
 12 17  1  0  0  0  0
 13 16  2  0  0  0  0
 13 17  1  0  0  0  0
 14 21  1  0  0  0  0
 14 22  1  0  0  0  0
 14 28  1  0  0  0  0
 15 18  1  0  0  0  0
 15 29  1  0  0  0  0
 15 30  1  0  0  0  0
 17 31  1  0  0  0  0
 17 32  1  0  0  0  0
 18 19  2  0  0  0  0
 18 33  1  0  0  0  0
 19 34  1  0  0  0  0
 19 35  1  0  0  0  0
 20 23  1  0  0  0  0
 20 36  1  0  0  0  0
 20 37  1  0  0  0  0
 21 24  1  0  0  0  0
 21 38  1  0  0  0  0
 21 39  1  0  0  0  0
 22 25  1  0  0  0  0
 22 40  1  0  0  0  0
 22 41  1  0  0  0  0
 23 42  1  0  0  0  0
 23 43  1  0  0  0  0
 23 44  1  0  0  0  0
 24 26  1  0  0  0  0
 24 45  1  0  0  0  0
 24 46  1  0  0  0  0
 25 26  1  0  0  0  0
 25 47  1  0  0  0  0
 25 48  1  0  0  0  0
 26 49  1  0  0  0  0
 26 50  1  0  0  0  0
M  END
>  <$CLUSTER>
962

>  <INDEX>
632567

$$$$
Asinex BAS 02138094
  MOE2020           3D

 54 56  0  0  0  0  0  0  0  0999 V2000
   -0.2510   -0.4430   -0.2980 N   0  0  0  0  0  0  0  0  0  0  0  0
    0.1090    0.1080    0.9150 C   0  0  0  0  0  0  0  0  0  0  0  0
    0.3950    1.3840    0.7320 N   0  0  0  0  0  0  0  0  0  0  0  0
   -0.1360    0.5740   -1.2090 C   0  0  0  0  0  0  0  0  0  0  0  0
    0.2460    1.6740   -0.6020 N   0  0  0  0  0  0  0  0  0  0  0  0
    1.7590    3.0790   -2.3590 N   0  0  0  0  0  0  0  0  0  0  0  0
   -0.4490    0.3920   -2.9020 S   0  0  0  0  0  0  0  0  0  0  0  0
    3.0020    3.5780   -1.9230 C   0  0  0  0  0  0  0  0  0  0  0  0
    1.3760    2.4050   -3.4680 C   0  0  0  0  0  0  0  0  0  0  0  0
    3.1100    4.2930   -0.7070 C   0  0  0  0  0  0  0  0  0  0  0  0
    0.1500   -0.6250    2.2220 C   0  0  0  0  0  0  0  0  0  0  0  0
    4.3670    4.7730   -0.2950 C   0  0  0  0  0  0  0  0  0  0  0  0
    2.1670    2.0310   -4.3260 O   0  0  0  0  0  0  0  0  0  0  0  0
    4.1600    3.3680   -2.6880 C   0  0  0  0  0  0  0  0  0  0  0  0
   -0.1090    2.0580   -3.5100 C   0  0  0  0  0  0  0  0  0  0  0  0
   -0.6660   -1.8130   -0.5350 C   0  0  0  0  0  0  0  0  0  0  0  0
    5.5040    4.5550   -1.0670 C   0  0  0  0  0  0  0  0  0  0  0  0
    5.4000    3.8530   -2.2620 C   0  0  0  0  0  0  0  0  0  0  0  0
    1.9210    4.5640    0.1750 C   0  0  0  0  0  0  0  0  0  0  0  0
   -1.1470   -0.3980    2.9980 C   0  0  0  0  0  0  0  0  0  0  0  0
    1.3560   -0.1860    3.0560 C   0  0  0  0  0  0  0  0  0  0  0  0
    6.8280    5.0730   -0.6100 C   0  0  0  0  0  0  0  0  0  0  0  0
    0.5020   -2.7250   -0.8670 C   0  0  0  0  0  0  0  0  0  0  0  0
    1.3910   -0.8700    4.4250 C   0  0  0  0  0  0  0  0  0  0  0  0
   -1.1230   -1.0860    4.3730 C   0  0  0  0  0  0  0  0  0  0  0  0
    0.0890   -0.6550    5.1910 C   0  0  0  0  0  0  0  0  0  0  0  0
    1.0020    3.2610   -1.7150 H   0  0  0  0  0  0  0  0  0  0  0  0
    0.2510   -1.6900    2.0140 H   0  0  0  0  0  0  0  0  0  0  0  0
    4.4500    5.3180    0.6330 H   0  0  0  0  0  0  0  0  0  0  0  0
    4.0920    2.8240   -3.6190 H   0  0  0  0  0  0  0  0  0  0  0  0
   -0.6520    2.7730   -2.8920 H   0  0  0  0  0  0  0  0  0  0  0  0
   -0.4560    2.1310   -4.5410 H   0  0  0  0  0  0  0  0  0  0  0  0
   -1.3680   -1.8260   -1.3690 H   0  0  0  0  0  0  0  0  0  0  0  0
   -1.1590   -2.1890    0.3610 H   0  0  0  0  0  0  0  0  0  0  0  0
    6.2800    3.6820   -2.8640 H   0  0  0  0  0  0  0  0  0  0  0  0
    1.0280    4.1320   -0.2770 H   0  0  0  0  0  0  0  0  0  0  0  0
    1.7880    5.6400    0.2860 H   0  0  0  0  0  0  0  0  0  0  0  0
    2.0860    4.1160    1.1550 H   0  0  0  0  0  0  0  0  0  0  0  0
   -1.9790   -0.7990    2.4180 H   0  0  0  0  0  0  0  0  0  0  0  0
   -1.2880    0.6730    3.1430 H   0  0  0  0  0  0  0  0  0  0  0  0
    1.3070    0.8930    3.2040 H   0  0  0  0  0  0  0  0  0  0  0  0
    2.2680   -0.4370    2.5140 H   0  0  0  0  0  0  0  0  0  0  0  0
    6.7070    5.5920    0.3410 H   0  0  0  0  0  0  0  0  0  0  0  0
    7.2240    5.7650   -1.3540 H   0  0  0  0  0  0  0  0  0  0  0  0
    7.5200    4.2400   -0.4840 H   0  0  0  0  0  0  0  0  0  0  0  0
    1.0050   -2.3600   -1.7630 H   0  0  0  0  0  0  0  0  0  0  0  0
    0.1350   -3.7360   -1.0430 H   0  0  0  0  0  0  0  0  0  0  0  0
    1.2050   -2.7330   -0.0340 H   0  0  0  0  0  0  0  0  0  0  0  0
    2.2160   -0.4580    5.0060 H   0  0  0  0  0  0  0  0  0  0  0  0
    1.5460   -1.9400    4.2830 H   0  0  0  0  0  0  0  0  0  0  0  0
   -1.0870   -2.1660    4.2280 H   0  0  0  0  0  0  0  0  0  0  0  0
   -2.0300   -0.8220    4.9170 H   0  0  0  0  0  0  0  0  0  0  0  0
   -0.0070    0.4030    5.4350 H   0  0  0  0  0  0  0  0  0  0  0  0
    0.1200   -1.2380    6.1110 H   0  0  0  0  0  0  0  0  0  0  0  0
  1  2  1  0  0  0  0
  1  4  1  0  0  0  0
  1 16  1  0  0  0  0
  2  3  2  0  0  0  0
  2 11  1  0  0  0  0
  3  5  1  0  0  0  0
  4  5  2  0  0  0  0
  4  7  1  0  0  0  0
  6  8  1  0  0  0  0
  6  9  1  0  0  0  0
  6 27  1  0  0  0  0
  7 15  1  0  0  0  0
  8 10  2  0  0  0  0
  8 14  1  0  0  0  0
  9 13  2  0  0  0  0
  9 15  1  0  0  0  0
 10 12  1  0  0  0  0
 10 19  1  0  0  0  0
 11 20  1  0  0  0  0
 11 21  1  0  0  0  0
 11 28  1  0  0  0  0
 12 17  2  0  0  0  0
 12 29  1  0  0  0  0
 14 18  2  0  0  0  0
 14 30  1  0  0  0  0
 15 31  1  0  0  0  0
 15 32  1  0  0  0  0
 16 23  1  0  0  0  0
 16 33  1  0  0  0  0
 16 34  1  0  0  0  0
 17 18  1  0  0  0  0
 17 22  1  0  0  0  0
 18 35  1  0  0  0  0
 19 36  1  0  0  0  0
 19 37  1  0  0  0  0
 19 38  1  0  0  0  0
 20 25  1  0  0  0  0
 20 39  1  0  0  0  0
 20 40  1  0  0  0  0
 21 24  1  0  0  0  0
 21 41  1  0  0  0  0
 21 42  1  0  0  0  0
 22 43  1  0  0  0  0
 22 44  1  0  0  0  0
 22 45  1  0  0  0  0
 23 46  1  0  0  0  0
 23 47  1  0  0  0  0
 23 48  1  0  0  0  0
 24 26  1  0  0  0  0
 24 49  1  0  0  0  0
 24 50  1  0  0  0  0
 25 26  1  0  0  0  0
 25 51  1  0  0  0  0
 25 52  1  0  0  0  0
 26 53  1  0  0  0  0
 26 54  1  0  0  0  0
M  END
>  <$CLUSTER>
963

>  <INDEX>
177362

$$$$
Chem T&I SHCLME-019285
  MOE2020           3D

 41 43  0  0  0  0  0  0  0  0999 V2000
    0.7210   -6.3560    4.4320 N   0  0  0  0  0  0  0  0  0  0  0  0
   -0.6200   -6.1640    4.5840 C   0  0  0  0  0  0  0  0  0  0  0  0
   -1.1590   -5.8600    3.4250 N   0  0  0  0  0  0  0  0  0  0  0  0
    0.9320   -6.1470    3.1280 C   0  0  0  0  0  0  0  0  0  0  0  0
   -0.1480   -5.8500    2.4860 N   0  0  0  0  0  0  0  0  0  0  0  0
    0.3620    0.6510   -0.0820 N   0  3  0  0  0  0  0  0  0  0  0  0
   -0.2920   -0.6470    0.0810 C   0  0  0  0  0  0  0  0  0  0  0  0
    2.5890   -6.2830    2.4030 S   0  0  0  0  0  0  0  0  0  0  0  0
   -1.4220   -6.2300    5.8460 C   0  0  0  0  0  0  0  0  0  0  0  0
    0.4780   -1.7400    0.1970 C   0  0  0  0  0  0  0  0  0  0  0  0
    1.8720   -4.4330    0.4910 C   0  0  0  0  0  0  0  0  0  0  0  0
    1.6040    0.6970   -0.1070 O   0  5  0  0  0  0  0  0  0  0  0  0
    0.4990   -4.2270    0.4880 N   0  0  0  0  0  0  0  0  0  0  0  0
   -0.3660    1.6520   -0.1880 O   0  0  0  0  0  0  0  0  0  0  0  0
   -0.1880   -2.9980    0.3540 C   0  0  0  0  0  0  0  0  0  0  0  0
    2.7620   -3.5960    0.3810 O   0  0  0  0  0  0  0  0  0  0  0  0
    2.2040   -5.8950    0.6570 C   0  0  0  0  0  0  0  0  0  0  0  0
   -0.9900   -5.6100    7.0260 C   0  0  0  0  0  0  0  0  0  0  0  0
   -2.6410   -6.9230    5.8550 C   0  0  0  0  0  0  0  0  0  0  0  0
    1.6450   -6.7040    5.4820 C   0  0  0  0  0  0  0  0  0  0  0  0
   -2.9530   -6.4040    8.1940 C   0  0  0  0  0  0  0  0  0  0  0  0
   -3.3990   -7.0130    7.0240 C   0  0  0  0  0  0  0  0  0  0  0  0
   -1.7510   -5.7000    8.1940 C   0  0  0  0  0  0  0  0  0  0  0  0
   -3.7330   -6.5420    9.2660 F   0  0  0  0  0  0  0  0  0  0  0  0
   -1.7850   -0.6130    0.1000 C   0  0  0  0  0  0  0  0  0  0  0  0
   -2.3480   -1.8810    0.2570 C   0  0  0  0  0  0  0  0  0  0  0  0
   -1.5900   -3.0470    0.3810 C   0  0  0  0  0  0  0  0  0  0  0  0
    1.5560   -1.6740    0.1730 H   0  0  0  0  0  0  0  0  0  0  0  0
   -0.0760   -5.0510    0.5940 H   0  0  0  0  0  0  0  0  0  0  0  0
    1.3500   -6.4930    0.3380 H   0  0  0  0  0  0  0  0  0  0  0  0
    3.0680   -6.1370    0.0390 H   0  0  0  0  0  0  0  0  0  0  0  0
   -0.0620   -5.0580    7.0330 H   0  0  0  0  0  0  0  0  0  0  0  0
   -2.9970   -7.3910    4.9490 H   0  0  0  0  0  0  0  0  0  0  0  0
    1.1060   -6.7920    6.4260 H   0  0  0  0  0  0  0  0  0  0  0  0
    2.4060   -5.9280    5.5690 H   0  0  0  0  0  0  0  0  0  0  0  0
    2.1220   -7.6550    5.2460 H   0  0  0  0  0  0  0  0  0  0  0  0
   -4.3330   -7.5560    7.0210 H   0  0  0  0  0  0  0  0  0  0  0  0
   -1.4070   -5.2230    9.0990 H   0  0  0  0  0  0  0  0  0  0  0  0
   -2.3650    0.2930    0.0030 H   0  0  0  0  0  0  0  0  0  0  0  0
   -3.4240   -1.9640    0.2840 H   0  0  0  0  0  0  0  0  0  0  0  0
   -2.0890   -3.9980    0.4990 H   0  0  0  0  0  0  0  0  0  0  0  0
  1  2  1  0  0  0  0
  1  4  1  0  0  0  0
  1 20  1  0  0  0  0
  2  3  2  0  0  0  0
  2  9  1  0  0  0  0
  3  5  1  0  0  0  0
  4  5  2  0  0  0  0
  4  8  1  0  0  0  0
  6  7  1  0  0  0  0
  6 12  1  0  0  0  0
  6 14  2  0  0  0  0
  7 10  2  0  0  0  0
  7 25  1  0  0  0  0
  8 17  1  0  0  0  0
  9 18  1  0  0  0  0
  9 19  2  0  0  0  0
 10 15  1  0  0  0  0
 10 28  1  0  0  0  0
 11 13  1  0  0  0  0
 11 16  2  0  0  0  0
 11 17  1  0  0  0  0
 13 15  1  0  0  0  0
 13 29  1  0  0  0  0
 15 27  2  0  0  0  0
 17 30  1  0  0  0  0
 17 31  1  0  0  0  0
 18 23  2  0  0  0  0
 18 32  1  0  0  0  0
 19 22  1  0  0  0  0
 19 33  1  0  0  0  0
 20 34  1  0  0  0  0
 20 35  1  0  0  0  0
 20 36  1  0  0  0  0
 21 22  2  0  0  0  0
 21 23  1  0  0  0  0
 21 24  1  0  0  0  0
 22 37  1  0  0  0  0
 23 38  1  0  0  0  0
 25 26  2  0  0  0  0
 25 39  1  0  0  0  0
 26 27  1  0  0  0  0
 26 40  1  0  0  0  0
 27 41  1  0  0  0  0
M  CHG  1   6   1
M  CHG  1  12  -1
M  END
>  <$CLUSTER>
964

>  <INDEX>
630597

$$$$
Chem T&I SHCLME-000519
  MOE2020           3D

 51 52  0  0  0  0  0  0  0  0999 V2000
    0.1390    0.0170    5.0140 C   0  0  0  0  0  0  0  0  0  0  0  0
    1.4670    0.2740    5.3520 C   0  0  0  0  0  0  0  0  0  0  0  0
    1.5430    1.1760    6.4920 C   0  0  0  0  0  0  0  0  0  0  0  0
    0.2830    1.5350    6.9320 C   0  0  0  0  0  0  0  0  0  0  0  0
   -0.9610    0.8250    6.0230 S   0  0  0  0  0  0  0  0  0  0  0  0
   -0.0690    0.4620   -0.3720 N   0  0  0  0  0  0  0  0  0  0  0  0
   -0.3940   -0.3480    0.6830 C   0  0  0  0  0  0  0  0  0  0  0  0
    0.6320   -0.4500    1.4970 N   0  0  0  0  0  0  0  0  0  0  0  0
    1.6570    0.3020    0.9740 N   0  0  0  0  0  0  0  0  0  0  0  0
    1.2340    0.8480   -0.1490 C   0  0  0  0  0  0  0  0  0  0  0  0
   -0.3610   -0.7720    4.0000 N   0  0  0  0  0  0  0  0  0  0  0  0
    2.5900   -0.3180    4.6150 C   0  0  0  0  0  0  0  0  0  0  0  0
   -0.0850    2.4330    8.0620 C   0  0  0  0  0  0  0  0  0  0  0  0
   -1.9370   -1.1110    0.8710 S   0  0  0  0  0  0  0  0  0  0  0  0
   -1.6210   -1.0940    3.6280 C   0  0  0  0  0  0  0  0  0  0  0  0
    2.4690   -1.0740    3.6570 O   0  0  0  0  0  0  0  0  0  0  0  0
    0.7560    2.9860    8.7720 O   0  0  0  0  0  0  0  0  0  0  0  0
   -2.6160   -0.6210    4.1660 O   0  0  0  0  0  0  0  0  0  0  0  0
   -1.7010   -2.0170    2.4160 C   0  0  0  0  0  0  0  0  0  0  0  0
   -1.4330    2.6300    8.2960 N   0  0  0  0  0  0  0  0  0  0  0  0
   -0.8970    0.8530   -1.4980 C   0  0  0  0  0  0  0  0  0  0  0  0
    2.7890    1.6830    7.1450 C   0  0  0  0  0  0  0  0  0  0  0  0
    3.8150    0.0390    5.0810 O   0  0  0  0  0  0  0  0  0  0  0  0
    2.0170    1.7330   -1.0410 C   0  0  0  0  0  0  0  0  0  0  0  0
    4.9690   -0.4580    4.4620 C   0  0  0  0  0  0  0  0  0  0  0  0
   -0.8170   -0.1340   -2.6500 C   0  0  0  0  0  0  0  0  0  0  0  0
    6.1910    0.0870    5.1720 C   0  0  0  0  0  0  0  0  0  0  0  0
   -1.6710    0.2800   -3.8250 C   0  0  0  0  0  0  0  0  0  0  0  0
    0.3530   -1.1920    3.4220 H   0  0  0  0  0  0  0  0  0  0  0  0
   -0.7740   -2.5870    2.3490 H   0  0  0  0  0  0  0  0  0  0  0  0
   -2.5390   -2.7010    2.5520 H   0  0  0  0  0  0  0  0  0  0  0  0
   -1.7320    3.2300    9.0520 H   0  0  0  0  0  0  0  0  0  0  0  0
   -2.1190    2.1740    7.7110 H   0  0  0  0  0  0  0  0  0  0  0  0
   -0.5680    1.8300   -1.8510 H   0  0  0  0  0  0  0  0  0  0  0  0
   -1.9330    0.9180   -1.1640 H   0  0  0  0  0  0  0  0  0  0  0  0
    3.6600    1.2720    6.6350 H   0  0  0  0  0  0  0  0  0  0  0  0
    2.8020    1.3760    8.1910 H   0  0  0  0  0  0  0  0  0  0  0  0
    2.8130    2.7710    7.0860 H   0  0  0  0  0  0  0  0  0  0  0  0
    1.4020    2.0280   -1.8910 H   0  0  0  0  0  0  0  0  0  0  0  0
    2.8990    1.2010   -1.3970 H   0  0  0  0  0  0  0  0  0  0  0  0
    2.3260    2.6220   -0.4910 H   0  0  0  0  0  0  0  0  0  0  0  0
    4.9850   -0.1460    3.4180 H   0  0  0  0  0  0  0  0  0  0  0  0
    4.9710   -1.5470    4.5160 H   0  0  0  0  0  0  0  0  0  0  0  0
   -1.1540   -1.1090   -2.2990 H   0  0  0  0  0  0  0  0  0  0  0  0
    0.2200   -0.2050   -2.9790 H   0  0  0  0  0  0  0  0  0  0  0  0
    6.1880    1.1760    5.1170 H   0  0  0  0  0  0  0  0  0  0  0  0
    7.0910   -0.2980    4.6930 H   0  0  0  0  0  0  0  0  0  0  0  0
    6.1730   -0.2240    6.2160 H   0  0  0  0  0  0  0  0  0  0  0  0
   -2.7120    0.3540   -3.5090 H   0  0  0  0  0  0  0  0  0  0  0  0
   -1.5840   -0.4630   -4.6170 H   0  0  0  0  0  0  0  0  0  0  0  0
   -1.3340    1.2480   -4.1960 H   0  0  0  0  0  0  0  0  0  0  0  0
  1  2  2  0  0  0  0
  1  5  1  0  0  0  0
  1 11  1  0  0  0  0
  2  3  1  0  0  0  0
  2 12  1  0  0  0  0
  3  4  2  0  0  0  0
  3 22  1  0  0  0  0
  4  5  1  0  0  0  0
  4 13  1  0  0  0  0
  6  7  1  0  0  0  0
  6 10  1  0  0  0  0
  6 21  1  0  0  0  0
  7  8  2  0  0  0  0
  7 14  1  0  0  0  0
  8  9  1  0  0  0  0
  9 10  2  0  0  0  0
 10 24  1  0  0  0  0
 11 15  1  0  0  0  0
 11 29  1  0  0  0  0
 12 16  2  0  0  0  0
 12 23  1  0  0  0  0
 13 17  2  0  0  0  0
 13 20  1  0  0  0  0
 14 19  1  0  0  0  0
 15 18  2  0  0  0  0
 15 19  1  0  0  0  0
 19 30  1  0  0  0  0
 19 31  1  0  0  0  0
 20 32  1  0  0  0  0
 20 33  1  0  0  0  0
 21 26  1  0  0  0  0
 21 34  1  0  0  0  0
 21 35  1  0  0  0  0
 22 36  1  0  0  0  0
 22 37  1  0  0  0  0
 22 38  1  0  0  0  0
 23 25  1  0  0  0  0
 24 39  1  0  0  0  0
 24 40  1  0  0  0  0
 24 41  1  0  0  0  0
 25 27  1  0  0  0  0
 25 42  1  0  0  0  0
 25 43  1  0  0  0  0
 26 28  1  0  0  0  0
 26 44  1  0  0  0  0
 26 45  1  0  0  0  0
 27 46  1  0  0  0  0
 27 47  1  0  0  0  0
 27 48  1  0  0  0  0
 28 49  1  0  0  0  0
 28 50  1  0  0  0  0
 28 51  1  0  0  0  0
M  END
>  <$CLUSTER>
965

>  <INDEX>
626585

$$$$
Chem T&I SHCLME-015318
  MOE2020           3D

 48 49  0  0  0  0  0  0  0  0999 V2000
   -1.6690   -3.8290   -1.2200 C   0  0  0  0  0  0  0  0  0  0  0  0
   -3.0550   -3.7080   -1.3050 C   0  0  0  0  0  0  0  0  0  0  0  0
   -3.5580   -4.3940   -2.4870 C   0  0  0  0  0  0  0  0  0  0  0  0
   -2.5310   -4.9760   -3.2040 C   0  0  0  0  0  0  0  0  0  0  0  0
   -1.0080   -4.7230   -2.5020 S   0  0  0  0  0  0  0  0  0  0  0  0
    0.1760   -0.1930    0.3770 C   0  0  0  0  0  0  0  0  0  0  0  0
   -0.8130   -3.3230   -0.2650 N   0  0  0  0  0  0  0  0  0  0  0  0
    0.1400    1.1290    0.0120 N   0  0  0  0  0  0  0  0  0  0  0  0
   -1.0310   -0.7160    0.4190 N   0  0  0  0  0  0  0  0  0  0  0  0
   -3.8400   -2.9760   -0.3050 C   0  0  0  0  0  0  0  0  0  0  0  0
   -2.5010   -5.7720   -4.4570 C   0  0  0  0  0  0  0  0  0  0  0  0
    1.6600   -1.0220    0.7270 S   0  0  0  0  0  0  0  0  0  0  0  0
    0.5270   -3.4190   -0.0940 C   0  0  0  0  0  0  0  0  0  0  0  0
   -1.8750    0.3060    0.0690 C   0  0  0  0  0  0  0  0  0  0  0  0
   -1.1740    1.4600   -0.1880 C   0  0  0  0  0  0  0  0  0  0  0  0
   -3.3630   -2.4140    0.6750 O   0  0  0  0  0  0  0  0  0  0  0  0
   -1.5200   -6.2490   -5.0150 O   0  0  0  0  0  0  0  0  0  0  0  0
    1.2620   -3.9820   -0.8970 O   0  0  0  0  0  0  0  0  0  0  0  0
    1.0580   -2.6770    1.1290 C   0  0  0  0  0  0  0  0  0  0  0  0
   -4.9860   -4.4880   -2.9210 C   0  0  0  0  0  0  0  0  0  0  0  0
   -5.1770   -2.9610   -0.5450 O   0  0  0  0  0  0  0  0  0  0  0  0
   -3.7540   -5.9300   -4.9560 O   0  0  0  0  0  0  0  0  0  0  0  0
    1.2500    2.0390   -0.1430 C   0  0  0  0  0  0  0  0  0  0  0  0
   -3.9180   -6.6740   -6.1620 C   0  0  0  0  0  0  0  0  0  0  0  0
   -6.0370   -2.2940    0.3370 C   0  0  0  0  0  0  0  0  0  0  0  0
   -7.4630   -2.4320   -0.1550 C   0  0  0  0  0  0  0  0  0  0  0  0
   -5.3870   -6.7190   -6.5300 C   0  0  0  0  0  0  0  0  0  0  0  0
   -1.2750   -2.7740    0.4450 H   0  0  0  0  0  0  0  0  0  0  0  0
   -2.9490    0.2160    0.0040 H   0  0  0  0  0  0  0  0  0  0  0  0
   -1.5730    2.4190   -0.4830 H   0  0  0  0  0  0  0  0  0  0  0  0
    0.2550   -2.5890    1.8600 H   0  0  0  0  0  0  0  0  0  0  0  0
    1.8780   -3.2530    1.5580 H   0  0  0  0  0  0  0  0  0  0  0  0
   -5.6180   -3.9580   -2.2080 H   0  0  0  0  0  0  0  0  0  0  0  0
   -5.2850   -5.5350   -2.9630 H   0  0  0  0  0  0  0  0  0  0  0  0
   -5.0960   -4.0390   -3.9080 H   0  0  0  0  0  0  0  0  0  0  0  0
    2.1810    1.5170    0.0770 H   0  0  0  0  0  0  0  0  0  0  0  0
    1.1320    2.8770    0.5440 H   0  0  0  0  0  0  0  0  0  0  0  0
    1.2750    2.4100   -1.1670 H   0  0  0  0  0  0  0  0  0  0  0  0
   -3.5480   -7.6890   -6.0160 H   0  0  0  0  0  0  0  0  0  0  0  0
   -3.3570   -6.1950   -6.9640 H   0  0  0  0  0  0  0  0  0  0  0  0
   -5.7670   -1.2390    0.3810 H   0  0  0  0  0  0  0  0  0  0  0  0
   -5.9510   -2.7320    1.3310 H   0  0  0  0  0  0  0  0  0  0  0  0
   -7.5480   -1.9930   -1.1490 H   0  0  0  0  0  0  0  0  0  0  0  0
   -8.1350   -1.9140    0.5290 H   0  0  0  0  0  0  0  0  0  0  0  0
   -7.7320   -3.4870   -0.1990 H   0  0  0  0  0  0  0  0  0  0  0  0
   -5.9480   -7.1980   -5.7280 H   0  0  0  0  0  0  0  0  0  0  0  0
   -5.5130   -7.2870   -7.4520 H   0  0  0  0  0  0  0  0  0  0  0  0
   -5.7560   -5.7040   -6.6750 H   0  0  0  0  0  0  0  0  0  0  0  0
  1  2  2  0  0  0  0
  1  5  1  0  0  0  0
  1  7  1  0  0  0  0
  2  3  1  0  0  0  0
  2 10  1  0  0  0  0
  3  4  2  0  0  0  0
  3 20  1  0  0  0  0
  4  5  1  0  0  0  0
  4 11  1  0  0  0  0
  6  8  1  0  0  0  0
  6  9  2  0  0  0  0
  6 12  1  0  0  0  0
  7 13  1  0  0  0  0
  7 28  1  0  0  0  0
  8 15  1  0  0  0  0
  8 23  1  0  0  0  0
  9 14  1  0  0  0  0
 10 16  2  0  0  0  0
 10 21  1  0  0  0  0
 11 17  2  0  0  0  0
 11 22  1  0  0  0  0
 12 19  1  0  0  0  0
 13 18  2  0  0  0  0
 13 19  1  0  0  0  0
 14 15  2  0  0  0  0
 14 29  1  0  0  0  0
 15 30  1  0  0  0  0
 19 31  1  0  0  0  0
 19 32  1  0  0  0  0
 20 33  1  0  0  0  0
 20 34  1  0  0  0  0
 20 35  1  0  0  0  0
 21 25  1  0  0  0  0
 22 24  1  0  0  0  0
 23 36  1  0  0  0  0
 23 37  1  0  0  0  0
 23 38  1  0  0  0  0
 24 27  1  0  0  0  0
 24 39  1  0  0  0  0
 24 40  1  0  0  0  0
 25 26  1  0  0  0  0
 25 41  1  0  0  0  0
 25 42  1  0  0  0  0
 26 43  1  0  0  0  0
 26 44  1  0  0  0  0
 26 45  1  0  0  0  0
 27 46  1  0  0  0  0
 27 47  1  0  0  0  0
 27 48  1  0  0  0  0
M  END
>  <$CLUSTER>
966

>  <INDEX>
629943

$$$$
Chembridge 7786101
  MOE2020           3D

 45 47  0  0  0  0  0  0  0  0999 V2000
   -0.4300   -0.7360    0.8020 N   0  0  0  0  0  0  0  0  0  0  0  0
   -0.1000   -0.2540   -0.4510 C   0  0  0  0  0  0  0  0  0  0  0  0
   -0.7800   -0.9350   -1.3560 N   0  0  0  0  0  0  0  0  0  0  0  0
   -1.3160   -1.7590    0.5770 C   0  0  0  0  0  0  0  0  0  0  0  0
   -1.5320   -1.8860   -0.7120 N   0  0  0  0  0  0  0  0  0  0  0  0
   -1.3430   -5.1520   -2.1840 C   0  0  0  0  0  0  0  0  0  0  0  0
   -1.2150   -4.6950   -3.4130 N   0  0  0  0  0  0  0  0  0  0  0  0
   -2.0240   -4.5160   -1.1790 N   0  0  0  0  0  0  0  0  0  0  0  0
   -0.5740   -6.6480   -1.8730 S   0  0  0  0  0  0  0  0  0  0  0  0
    0.8070    0.8480   -0.7400 C   0  0  0  0  0  0  0  0  0  0  0  0
   -2.0420   -2.7000    1.8360 S   0  0  0  0  0  0  0  0  0  0  0  0
   -0.4630   -5.5790   -4.1610 C   0  0  0  0  0  0  0  0  0  0  0  0
   -2.2720   -4.8580    0.1070 C   0  0  0  0  0  0  0  0  0  0  0  0
   -0.0250   -6.7010   -3.4940 C   0  0  0  0  0  0  0  0  0  0  0  0
    0.3080    2.0300   -1.3030 C   0  0  0  0  0  0  0  0  0  0  0  0
    0.0540   -0.2410    2.0780 C   0  0  0  0  0  0  0  0  0  0  0  0
   -1.8140   -5.8690    0.6270 O   0  0  0  0  0  0  0  0  0  0  0  0
   -3.0840   -3.8270    0.8850 C   0  0  0  0  0  0  0  0  0  0  0  0
   -0.8130    0.8800    2.6280 C   0  0  0  0  0  0  0  0  0  0  0  0
   -1.4000    0.8690    3.8110 C   0  0  0  0  0  0  0  0  0  0  0  0
    1.1700    3.0870   -1.6000 C   0  0  0  0  0  0  0  0  0  0  0  0
    2.1820    0.7320   -0.5000 C   0  0  0  0  0  0  0  0  0  0  0  0
    3.0410    1.7920   -0.7970 C   0  0  0  0  0  0  0  0  0  0  0  0
   -0.1820   -5.3000   -5.5480 C   0  0  0  0  0  0  0  0  0  0  0  0
    2.5350    2.9690   -1.3450 C   0  0  0  0  0  0  0  0  0  0  0  0
    0.6300    4.3480   -2.1930 C   0  0  0  0  0  0  0  0  0  0  0  0
   -2.4140   -3.6240   -1.4490 H   0  0  0  0  0  0  0  0  0  0  0  0
    0.5720   -7.4910   -3.9260 H   0  0  0  0  0  0  0  0  0  0  0  0
   -0.7480    2.1240   -1.5080 H   0  0  0  0  0  0  0  0  0  0  0  0
    1.0690    0.1330    1.9470 H   0  0  0  0  0  0  0  0  0  0  0  0
    0.0600   -1.0630    2.7940 H   0  0  0  0  0  0  0  0  0  0  0  0
   -3.6760   -3.2440    0.1800 H   0  0  0  0  0  0  0  0  0  0  0  0
   -3.7490   -4.3510    1.5710 H   0  0  0  0  0  0  0  0  0  0  0  0
   -0.9600    1.7500    2.0050 H   0  0  0  0  0  0  0  0  0  0  0  0
   -2.0010    1.7100    4.1240 H   0  0  0  0  0  0  0  0  0  0  0  0
   -1.2790    0.0190    4.4660 H   0  0  0  0  0  0  0  0  0  0  0  0
    2.5800   -0.1820   -0.0830 H   0  0  0  0  0  0  0  0  0  0  0  0
    4.0990    1.6990   -0.6020 H   0  0  0  0  0  0  0  0  0  0  0  0
   -0.6420   -4.3530   -5.8280 H   0  0  0  0  0  0  0  0  0  0  0  0
   -0.5880   -6.0990   -6.1690 H   0  0  0  0  0  0  0  0  0  0  0  0
    0.8960   -5.2380   -5.6950 H   0  0  0  0  0  0  0  0  0  0  0  0
    3.2000    3.7890   -1.5720 H   0  0  0  0  0  0  0  0  0  0  0  0
   -0.4490    4.2570   -2.3200 H   0  0  0  0  0  0  0  0  0  0  0  0
    1.0960    4.5220   -3.1630 H   0  0  0  0  0  0  0  0  0  0  0  0
    0.8480    5.1840   -1.5290 H   0  0  0  0  0  0  0  0  0  0  0  0
  1  2  1  0  0  0  0
  1  4  1  0  0  0  0
  1 16  1  0  0  0  0
  2  3  2  0  0  0  0
  2 10  1  0  0  0  0
  3  5  1  0  0  0  0
  4  5  2  0  0  0  0
  4 11  1  0  0  0  0
  6  7  2  0  0  0  0
  6  8  1  0  0  0  0
  6  9  1  0  0  0  0
  7 12  1  0  0  0  0
  8 13  1  0  0  0  0
  8 27  1  0  0  0  0
  9 14  1  0  0  0  0
 10 15  2  0  0  0  0
 10 22  1  0  0  0  0
 11 18  1  0  0  0  0
 12 14  2  0  0  0  0
 12 24  1  0  0  0  0
 13 17  2  0  0  0  0
 13 18  1  0  0  0  0
 14 28  1  0  0  0  0
 15 21  1  0  0  0  0
 15 29  1  0  0  0  0
 16 19  1  0  0  0  0
 16 30  1  0  0  0  0
 16 31  1  0  0  0  0
 18 32  1  0  0  0  0
 18 33  1  0  0  0  0
 19 20  2  0  0  0  0
 19 34  1  0  0  0  0
 20 35  1  0  0  0  0
 20 36  1  0  0  0  0
 21 25  2  0  0  0  0
 21 26  1  0  0  0  0
 22 23  2  0  0  0  0
 22 37  1  0  0  0  0
 23 25  1  0  0  0  0
 23 38  1  0  0  0  0
 24 39  1  0  0  0  0
 24 40  1  0  0  0  0
 24 41  1  0  0  0  0
 25 42  1  0  0  0  0
 26 43  1  0  0  0  0
 26 44  1  0  0  0  0
 26 45  1  0  0  0  0
M  END
>  <$CLUSTER>
967

>  <INDEX>
85936

$$$$
Chem T&I SHCLME-031858
  MOE2020           3D

 51 53  0  0  0  0  0  0  0  0999 V2000
    0.4260    0.0620   -0.0750 C   0  0  0  0  0  0  0  0  0  0  0  0
    0.1880    4.3280    3.1290 N   0  0  0  0  0  0  0  0  0  0  0  0
   -0.8640   -0.4670   -0.0470 C   0  0  0  0  0  0  0  0  0  0  0  0
   -1.1230    3.9560    3.1410 C   0  0  0  0  0  0  0  0  0  0  0  0
   -1.2220    2.6670    2.9060 N   0  0  0  0  0  0  0  0  0  0  0  0
    0.8440    3.1900    2.8750 C   0  0  0  0  0  0  0  0  0  0  0  0
    1.0650    0.1470   -1.6450 S   0  0  0  0  0  0  0  0  0  0  0  0
    0.0560    2.1770    2.7350 N   0  0  0  0  0  0  0  0  0  0  0  0
   -1.3100   -0.8050   -1.3910 C   0  0  0  0  0  0  0  0  0  0  0  0
   -0.3400   -0.5110   -2.3300 C   0  0  0  0  0  0  0  0  0  0  0  0
    1.1690    0.4940    1.0200 N   0  0  0  0  0  0  0  0  0  0  0  0
   -1.6140   -0.6340    1.2030 C   0  0  0  0  0  0  0  0  0  0  0  0
    2.6540    3.1490    2.7540 S   0  0  0  0  0  0  0  0  0  0  0  0
    2.4550    1.0230    1.0070 C   0  0  0  0  0  0  0  0  0  0  0  0
   -2.3050    4.8850    3.3910 C   0  0  0  0  0  0  0  0  0  0  0  0
   -1.1890   -0.3300    2.3120 O   0  0  0  0  0  0  0  0  0  0  0  0
    3.1950    1.2190    0.0490 O   0  0  0  0  0  0  0  0  0  0  0  0
    2.9050    1.3690    2.4060 C   0  0  0  0  0  0  0  0  0  0  0  0
    0.6860    5.6630    3.3480 C   0  0  0  0  0  0  0  0  0  0  0  0
   -2.8540   -1.1650    1.0440 O   0  0  0  0  0  0  0  0  0  0  0  0
   -2.6320   -1.3930   -1.7690 C   0  0  0  0  0  0  0  0  0  0  0  0
   -0.4800   -0.7330   -3.7640 C   0  0  0  0  0  0  0  0  0  0  0  0
   -2.7920    4.7470    4.8330 C   0  0  0  0  0  0  0  0  0  0  0  0
   -3.4470    4.6160    2.4100 C   0  0  0  0  0  0  0  0  0  0  0  0
   -3.6650   -1.3720    2.1620 C   0  0  0  0  0  0  0  0  0  0  0  0
   -4.2210    5.4020    4.6670 C   0  0  0  0  0  0  0  0  0  0  0  0
   -4.6130    5.3190    3.1930 C   0  0  0  0  0  0  0  0  0  0  0  0
    0.7250    0.4140    1.9240 H   0  0  0  0  0  0  0  0  0  0  0  0
   -1.9660    5.9080    3.2300 H   0  0  0  0  0  0  0  0  0  0  0  0
    2.3300    0.7810    3.1210 H   0  0  0  0  0  0  0  0  0  0  0  0
    3.9640    1.1310    2.5090 H   0  0  0  0  0  0  0  0  0  0  0  0
   -0.1510    6.3380    3.5270 H   0  0  0  0  0  0  0  0  0  0  0  0
    1.2380    5.9940    2.4680 H   0  0  0  0  0  0  0  0  0  0  0  0
    1.3470    5.6670    4.2150 H   0  0  0  0  0  0  0  0  0  0  0  0
   -3.2340   -1.5400   -0.8720 H   0  0  0  0  0  0  0  0  0  0  0  0
   -2.4750   -2.3520   -2.2630 H   0  0  0  0  0  0  0  0  0  0  0  0
   -3.1500   -0.7160   -2.4480 H   0  0  0  0  0  0  0  0  0  0  0  0
    0.4300   -0.4140   -4.2720 H   0  0  0  0  0  0  0  0  0  0  0  0
   -1.3260   -0.1580   -4.1400 H   0  0  0  0  0  0  0  0  0  0  0  0
   -0.6490   -1.7930   -3.9530 H   0  0  0  0  0  0  0  0  0  0  0  0
   -2.1660    5.3010    5.5320 H   0  0  0  0  0  0  0  0  0  0  0  0
   -2.8530    3.7050    5.1470 H   0  0  0  0  0  0  0  0  0  0  0  0
   -3.6290    3.5500    2.2770 H   0  0  0  0  0  0  0  0  0  0  0  0
   -3.2690    5.0780    1.4390 H   0  0  0  0  0  0  0  0  0  0  0  0
   -4.6160   -1.8010    1.8470 H   0  0  0  0  0  0  0  0  0  0  0  0
   -3.8440   -0.4200    2.6620 H   0  0  0  0  0  0  0  0  0  0  0  0
   -3.1680   -2.0560    2.8500 H   0  0  0  0  0  0  0  0  0  0  0  0
   -4.1880    6.4450    4.9820 H   0  0  0  0  0  0  0  0  0  0  0  0
   -4.9480    4.8620    5.2740 H   0  0  0  0  0  0  0  0  0  0  0  0
   -5.5300    4.7390    3.0880 H   0  0  0  0  0  0  0  0  0  0  0  0
   -4.7700    6.3220    2.7970 H   0  0  0  0  0  0  0  0  0  0  0  0
  1  3  2  0  0  0  0
  1  7  1  0  0  0  0
  1 11  1  0  0  0  0
  2  4  1  0  0  0  0
  2  6  1  0  0  0  0
  2 19  1  0  0  0  0
  3  9  1  0  0  0  0
  3 12  1  0  0  0  0
  4  5  2  0  0  0  0
  4 15  1  0  0  0  0
  5  8  1  0  0  0  0
  6  8  2  0  0  0  0
  6 13  1  0  0  0  0
  7 10  1  0  0  0  0
  9 10  2  0  0  0  0
  9 21  1  0  0  0  0
 10 22  1  0  0  0  0
 11 14  1  0  0  0  0
 11 28  1  0  0  0  0
 12 16  2  0  0  0  0
 12 20  1  0  0  0  0
 13 18  1  0  0  0  0
 14 17  2  0  0  0  0
 14 18  1  0  0  0  0
 15 23  1  0  0  0  0
 15 24  1  0  0  0  0
 15 29  1  0  0  0  0
 18 30  1  0  0  0  0
 18 31  1  0  0  0  0
 19 32  1  0  0  0  0
 19 33  1  0  0  0  0
 19 34  1  0  0  0  0
 20 25  1  0  0  0  0
 21 35  1  0  0  0  0
 21 36  1  0  0  0  0
 21 37  1  0  0  0  0
 22 38  1  0  0  0  0
 22 39  1  0  0  0  0
 22 40  1  0  0  0  0
 23 26  1  0  0  0  0
 23 41  1  0  0  0  0
 23 42  1  0  0  0  0
 24 27  1  0  0  0  0
 24 43  1  0  0  0  0
 24 44  1  0  0  0  0
 25 45  1  0  0  0  0
 25 46  1  0  0  0  0
 25 47  1  0  0  0  0
 26 27  1  0  0  0  0
 26 48  1  0  0  0  0
 26 49  1  0  0  0  0
 27 50  1  0  0  0  0
 27 51  1  0  0  0  0
M  END
>  <$CLUSTER>
968

>  <INDEX>
632363

$$$$
Chem T&I SHCLME-036725
  MOE2020           3D

 51 53  0  0  0  0  0  0  0  0999 V2000
    0.5730   -0.2170   -0.9970 N   0  0  0  0  0  0  0  0  0  0  0  0
   -0.4260   -0.3080   -0.0460 C   0  0  0  0  0  0  0  0  0  0  0  0
   -1.4840   -0.8700   -0.6010 N   0  0  0  0  0  0  0  0  0  0  0  0
    0.0520   -0.7900   -2.1290 C   0  0  0  0  0  0  0  0  0  0  0  0
   -1.1800   -1.1830   -1.9020 N   0  0  0  0  0  0  0  0  0  0  0  0
    0.9130   -0.9260   -3.6250 S   0  0  0  0  0  0  0  0  0  0  0  0
   -0.3570    0.1740    1.3270 C   0  0  0  0  0  0  0  0  0  0  0  0
   -1.4810   -0.8140   -5.0250 C   0  0  0  0  0  0  0  0  0  0  0  0
   -2.5570   -0.9430   -4.2150 N   0  0  0  0  0  0  0  0  0  0  0  0
   -0.2740    1.0930    3.9730 C   0  0  0  0  0  0  0  0  0  0  0  0
   -0.2250    1.5690    5.3250 N   0  0  0  0  0  0  0  0  0  0  0  0
    1.8870    0.3770   -0.8230 C   0  0  0  0  0  0  0  0  0  0  0  0
   -1.4130    0.0270   -5.9150 O   0  0  0  0  0  0  0  0  0  0  0  0
   -1.1760    1.2340    1.7350 C   0  0  0  0  0  0  0  0  0  0  0  0
    0.4920   -0.4340    2.2620 C   0  0  0  0  0  0  0  0  0  0  0  0
   -1.1310    1.6940    3.0520 C   0  0  0  0  0  0  0  0  0  0  0  0
    0.5350    0.0280    3.5790 C   0  0  0  0  0  0  0  0  0  0  0  0
    1.8930    1.8640   -1.1330 C   0  0  0  0  0  0  0  0  0  0  0  0
   -0.3160   -1.7350   -4.6720 C   0  0  0  0  0  0  0  0  0  0  0  0
    2.2850    2.8080   -0.2960 C   0  0  0  0  0  0  0  0  0  0  0  0
   -3.8030   -0.2980   -4.1940 C   0  0  0  0  0  0  0  0  0  0  0  0
   -1.0750    2.6880    5.7370 C   0  0  0  0  0  0  0  0  0  0  0  0
    0.6380    1.0100    6.3670 C   0  0  0  0  0  0  0  0  0  0  0  0
   -4.1310    0.7210   -5.0940 C   0  0  0  0  0  0  0  0  0  0  0  0
   -4.7520   -0.6810   -3.2320 C   0  0  0  0  0  0  0  0  0  0  0  0
   -5.3820    1.3430   -5.0320 C   0  0  0  0  0  0  0  0  0  0  0  0
   -6.0000   -0.0570   -3.1730 C   0  0  0  0  0  0  0  0  0  0  0  0
   -6.3160    0.9550   -4.0730 C   0  0  0  0  0  0  0  0  0  0  0  0
   -2.4420   -1.6340   -3.4880 H   0  0  0  0  0  0  0  0  0  0  0  0
    2.5890   -0.1230   -1.4900 H   0  0  0  0  0  0  0  0  0  0  0  0
    2.2030    0.2330    0.2100 H   0  0  0  0  0  0  0  0  0  0  0  0
   -1.8460    1.6980    1.0270 H   0  0  0  0  0  0  0  0  0  0  0  0
    1.1160   -1.2630    1.9630 H   0  0  0  0  0  0  0  0  0  0  0  0
   -1.7610    2.5160    3.3580 H   0  0  0  0  0  0  0  0  0  0  0  0
    1.1960   -0.4400    4.2930 H   0  0  0  0  0  0  0  0  0  0  0  0
    1.5510    2.1720   -2.1100 H   0  0  0  0  0  0  0  0  0  0  0  0
   -0.7060   -2.6050   -4.1440 H   0  0  0  0  0  0  0  0  0  0  0  0
    0.1680   -2.0560   -5.5950 H   0  0  0  0  0  0  0  0  0  0  0  0
    2.2570    3.8440   -0.5990 H   0  0  0  0  0  0  0  0  0  0  0  0
    2.6340    2.5430    0.6910 H   0  0  0  0  0  0  0  0  0  0  0  0
   -1.6710    3.0230    4.8880 H   0  0  0  0  0  0  0  0  0  0  0  0
   -0.4500    3.5090    6.0890 H   0  0  0  0  0  0  0  0  0  0  0  0
   -1.7370    2.3650    6.5410 H   0  0  0  0  0  0  0  0  0  0  0  0
    1.2230    0.1890    5.9530 H   0  0  0  0  0  0  0  0  0  0  0  0
    0.0240    0.6410    7.1880 H   0  0  0  0  0  0  0  0  0  0  0  0
    1.3100    1.7840    6.7360 H   0  0  0  0  0  0  0  0  0  0  0  0
   -3.4140    1.0290   -5.8410 H   0  0  0  0  0  0  0  0  0  0  0  0
   -4.5140   -1.4670   -2.5300 H   0  0  0  0  0  0  0  0  0  0  0  0
   -5.6260    2.1290   -5.7320 H   0  0  0  0  0  0  0  0  0  0  0  0
   -6.7200   -0.3610   -2.4280 H   0  0  0  0  0  0  0  0  0  0  0  0
   -7.2810    1.4380   -4.0290 H   0  0  0  0  0  0  0  0  0  0  0  0
  1  2  1  0  0  0  0
  1  4  1  0  0  0  0
  1 12  1  0  0  0  0
  2  3  2  0  0  0  0
  2  7  1  0  0  0  0
  3  5  1  0  0  0  0
  4  5  2  0  0  0  0
  4  6  1  0  0  0  0
  6 19  1  0  0  0  0
  7 14  2  0  0  0  0
  7 15  1  0  0  0  0
  8  9  1  0  0  0  0
  8 13  2  0  0  0  0
  8 19  1  0  0  0  0
  9 21  1  0  0  0  0
  9 29  1  0  0  0  0
 10 11  1  0  0  0  0
 10 16  2  0  0  0  0
 10 17  1  0  0  0  0
 11 22  1  0  0  0  0
 11 23  1  0  0  0  0
 12 18  1  0  0  0  0
 12 30  1  0  0  0  0
 12 31  1  0  0  0  0
 14 16  1  0  0  0  0
 14 32  1  0  0  0  0
 15 17  2  0  0  0  0
 15 33  1  0  0  0  0
 16 34  1  0  0  0  0
 17 35  1  0  0  0  0
 18 20  2  0  0  0  0
 18 36  1  0  0  0  0
 19 37  1  0  0  0  0
 19 38  1  0  0  0  0
 20 39  1  0  0  0  0
 20 40  1  0  0  0  0
 21 24  2  0  0  0  0
 21 25  1  0  0  0  0
 22 41  1  0  0  0  0
 22 42  1  0  0  0  0
 22 43  1  0  0  0  0
 23 44  1  0  0  0  0
 23 45  1  0  0  0  0
 23 46  1  0  0  0  0
 24 26  1  0  0  0  0
 24 47  1  0  0  0  0
 25 27  2  0  0  0  0
 25 48  1  0  0  0  0
 26 28  2  0  0  0  0
 26 49  1  0  0  0  0
 27 28  1  0  0  0  0
 27 50  1  0  0  0  0
 28 51  1  0  0  0  0
M  END
>  <$CLUSTER>
969

>  <INDEX>
633420

$$$$
Chem T&I SHCLME-009789
  MOE2020           3D

 48 51  0  0  0  0  0  0  0  0999 V2000
    0.4780    0.2310    0.0580 C   0  0  0  0  0  0  0  0  0  0  0  0
    0.1710   -1.1650    0.2660 C   0  0  0  0  0  0  0  0  0  0  0  0
   -0.1590    1.3450    0.5490 N   0  0  0  0  0  0  0  0  0  0  0  0
    1.4690    0.5940   -0.7270 N   0  0  0  0  0  0  0  0  0  0  0  0
    0.5370    2.4070    0.0280 C   0  0  0  0  0  0  0  0  0  0  0  0
    1.5130    1.9680   -0.7370 N   0  0  0  0  0  0  0  0  0  0  0  0
    0.2220   -1.7280    1.5190 C   0  0  0  0  0  0  0  0  0  0  0  0
   -0.1710   -2.1050   -0.7660 C   0  0  0  0  0  0  0  0  0  0  0  0
   -0.1690   -3.3870    1.4850 S   0  0  0  0  0  0  0  0  0  0  0  0
    0.1370    4.0630    0.3330 S   0  0  0  0  0  0  0  0  0  0  0  0
   -0.3900   -3.3780   -0.2250 C   0  0  0  0  0  0  0  0  0  0  0  0
    1.1830    4.7820   -2.1360 C   0  0  0  0  0  0  0  0  0  0  0  0
    2.8020    4.2850   -4.9230 C   0  0  0  0  0  0  0  0  0  0  0  0
    4.0750    3.8320   -5.0170 O   0  0  0  0  0  0  0  0  0  0  0  0
    1.8830    3.7760   -2.7100 N   0  0  0  0  0  0  0  0  0  0  0  0
    2.6420    5.4730   -5.5760 C   0  0  0  0  0  0  0  0  0  0  0  0
    4.7450    4.7490   -5.7620 C   0  0  0  0  0  0  0  0  0  0  0  0
    3.9090    5.7780   -6.1290 C   0  0  0  0  0  0  0  0  0  0  0  0
    0.3780    5.4700   -2.7530 O   0  0  0  0  0  0  0  0  0  0  0  0
   -1.3240    1.3720    1.4120 C   0  0  0  0  0  0  0  0  0  0  0  0
    1.4010    4.9200   -0.6320 C   0  0  0  0  0  0  0  0  0  0  0  0
    1.8550    3.4240   -4.1080 C   0  0  0  0  0  0  0  0  0  0  0  0
   -0.3190   -1.9480   -2.1680 C   0  0  0  0  0  0  0  0  0  0  0  0
   -0.7460   -4.4740   -1.0360 C   0  0  0  0  0  0  0  0  0  0  0  0
   -2.6240    1.3310    0.6250 C   0  0  0  0  0  0  0  0  0  0  0  0
   -0.6710   -3.0340   -2.9740 C   0  0  0  0  0  0  0  0  0  0  0  0
   -3.8400    1.3700    1.5230 C   0  0  0  0  0  0  0  0  0  0  0  0
   -0.8820   -4.2840   -2.4120 C   0  0  0  0  0  0  0  0  0  0  0  0
    0.4790   -1.1850    2.4170 H   0  0  0  0  0  0  0  0  0  0  0  0
    2.4760    3.2240   -2.1070 H   0  0  0  0  0  0  0  0  0  0  0  0
    1.7380    6.0580   -5.6540 H   0  0  0  0  0  0  0  0  0  0  0  0
    5.7890    4.6800   -6.0290 H   0  0  0  0  0  0  0  0  0  0  0  0
    4.1670    6.6440   -6.7200 H   0  0  0  0  0  0  0  0  0  0  0  0
   -1.3010    2.2870    2.0040 H   0  0  0  0  0  0  0  0  0  0  0  0
   -1.2890    0.5090    2.0760 H   0  0  0  0  0  0  0  0  0  0  0  0
    2.3760    4.5020   -0.3800 H   0  0  0  0  0  0  0  0  0  0  0  0
    1.3810    5.9780   -0.3720 H   0  0  0  0  0  0  0  0  0  0  0  0
    2.1470    2.3790   -4.2150 H   0  0  0  0  0  0  0  0  0  0  0  0
    0.8410    3.5590   -4.4860 H   0  0  0  0  0  0  0  0  0  0  0  0
   -0.1580   -0.9790   -2.6170 H   0  0  0  0  0  0  0  0  0  0  0  0
   -0.9110   -5.4480   -0.5990 H   0  0  0  0  0  0  0  0  0  0  0  0
   -2.6500    0.4120    0.0390 H   0  0  0  0  0  0  0  0  0  0  0  0
   -2.6550    2.1900   -0.0450 H   0  0  0  0  0  0  0  0  0  0  0  0
   -0.7790   -2.8990   -4.0400 H   0  0  0  0  0  0  0  0  0  0  0  0
   -3.8200    0.5150    2.1990 H   0  0  0  0  0  0  0  0  0  0  0  0
   -4.7430    1.3310    0.9140 H   0  0  0  0  0  0  0  0  0  0  0  0
   -3.8330    2.2920    2.1040 H   0  0  0  0  0  0  0  0  0  0  0  0
   -1.1540   -5.1170   -3.0440 H   0  0  0  0  0  0  0  0  0  0  0  0
  1  2  1  0  0  0  0
  1  3  1  0  0  0  0
  1  4  2  0  0  0  0
  2  7  2  0  0  0  0
  2  8  1  0  0  0  0
  3  5  1  0  0  0  0
  3 20  1  0  0  0  0
  4  6  1  0  0  0  0
  5  6  2  0  0  0  0
  5 10  1  0  0  0  0
  7  9  1  0  0  0  0
  7 29  1  0  0  0  0
  8 11  2  0  0  0  0
  8 23  1  0  0  0  0
  9 11  1  0  0  0  0
 10 21  1  0  0  0  0
 11 24  1  0  0  0  0
 12 15  1  0  0  0  0
 12 19  2  0  0  0  0
 12 21  1  0  0  0  0
 13 14  1  0  0  0  0
 13 16  2  0  0  0  0
 13 22  1  0  0  0  0
 14 17  1  0  0  0  0
 15 22  1  0  0  0  0
 15 30  1  0  0  0  0
 16 18  1  0  0  0  0
 16 31  1  0  0  0  0
 17 18  2  0  0  0  0
 17 32  1  0  0  0  0
 18 33  1  0  0  0  0
 20 25  1  0  0  0  0
 20 34  1  0  0  0  0
 20 35  1  0  0  0  0
 21 36  1  0  0  0  0
 21 37  1  0  0  0  0
 22 38  1  0  0  0  0
 22 39  1  0  0  0  0
 23 26  2  0  0  0  0
 23 40  1  0  0  0  0
 24 28  2  0  0  0  0
 24 41  1  0  0  0  0
 25 27  1  0  0  0  0
 25 42  1  0  0  0  0
 25 43  1  0  0  0  0
 26 28  1  0  0  0  0
 26 44  1  0  0  0  0
 27 45  1  0  0  0  0
 27 46  1  0  0  0  0
 27 47  1  0  0  0  0
 28 48  1  0  0  0  0
M  END
>  <$CLUSTER>
970

>  <INDEX>
628413

$$$$
Chem T&I SHCLME-041474
  MOE2020           3D

 48 50  0  0  0  0  0  0  0  0999 V2000
   -0.0400    0.0870    0.5170 N   0  0  0  0  0  0  0  0  0  0  0  0
   -1.5880   -1.2340   -4.5870 C   0  0  0  0  0  0  0  0  0  0  0  0
   -0.5400   -0.9070   -0.2830 C   0  0  0  0  0  0  0  0  0  0  0  0
   -0.9130   -0.7530   -5.6170 N   0  3  0  0  0  0  0  0  0  0  0  0
    1.2010    0.3850   -0.0030 C   0  0  0  0  0  0  0  0  0  0  0  0
    0.3270   -1.1960   -1.2270 N   0  0  0  0  0  0  0  0  0  0  0  0
    1.4220   -0.3840   -1.0510 N   0  0  0  0  0  0  0  0  0  0  0  0
   -1.0760   -1.8420   -3.4650 C   0  0  0  0  0  0  0  0  0  0  0  0
   -2.0850   -1.6500   -0.0440 S   0  0  0  0  0  0  0  0  0  0  0  0
   -3.3350   -1.8090   -3.2330 N   0  0  0  0  0  0  0  0  0  0  0  0
   -2.1540   -2.1500   -2.6720 N   0  0  0  0  0  0  0  0  0  0  0  0
   -2.9810   -1.2410   -4.3900 C   0  0  0  0  0  0  0  0  0  0  0  0
   -2.1210   -2.8430   -1.4000 C   0  0  0  0  0  0  0  0  0  0  0  0
    0.3280   -0.8230   -5.6440 O   0  5  0  0  0  0  0  0  0  0  0  0
   -1.5930   -0.2430   -6.5240 O   0  0  0  0  0  0  0  0  0  0  0  0
    4.2180    4.9490    1.5920 C   0  0  0  0  0  0  0  0  0  0  0  0
    2.1320    1.4020    0.5390 C   0  0  0  0  0  0  0  0  0  0  0  0
    3.7480    6.1650    1.0980 C   0  0  0  0  0  0  0  0  0  0  0  0
    3.5630    3.7570    1.2710 C   0  0  0  0  0  0  0  0  0  0  0  0
   -0.6630    0.7120    1.6690 C   0  0  0  0  0  0  0  0  0  0  0  0
   -0.3730   -0.0310    2.9620 C   0  0  0  0  0  0  0  0  0  0  0  0
    1.6950    2.6650    0.0630 O   0  0  0  0  0  0  0  0  0  0  0  0
    2.6200    6.1900    0.2810 C   0  0  0  0  0  0  0  0  0  0  0  0
    2.4310    3.7770    0.4520 C   0  0  0  0  0  0  0  0  0  0  0  0
    0.1850    0.5050    4.0320 C   0  0  0  0  0  0  0  0  0  0  0  0
    1.9650    5.0010   -0.0410 C   0  0  0  0  0  0  0  0  0  0  0  0
    5.4290    4.9210    2.4700 C   0  0  0  0  0  0  0  0  0  0  0  0
    4.4540    7.4340    1.4440 C   0  0  0  0  0  0  0  0  0  0  0  0
   -0.0360   -2.0380   -3.2510 H   0  0  0  0  0  0  0  0  0  0  0  0
   -3.6880   -0.8320   -5.0970 H   0  0  0  0  0  0  0  0  0  0  0  0
   -3.0090   -3.4680   -1.3070 H   0  0  0  0  0  0  0  0  0  0  0  0
   -1.2300   -3.4690   -1.3530 H   0  0  0  0  0  0  0  0  0  0  0  0
    3.1460    1.2030    0.1930 H   0  0  0  0  0  0  0  0  0  0  0  0
    2.1100    1.3850    1.6290 H   0  0  0  0  0  0  0  0  0  0  0  0
    3.9320    2.8180    1.6570 H   0  0  0  0  0  0  0  0  0  0  0  0
   -1.7420    0.7350    1.5130 H   0  0  0  0  0  0  0  0  0  0  0  0
   -0.2870    1.7310    1.7600 H   0  0  0  0  0  0  0  0  0  0  0  0
   -0.6430   -1.0760    3.0100 H   0  0  0  0  0  0  0  0  0  0  0  0
    2.2520    7.1300   -0.1030 H   0  0  0  0  0  0  0  0  0  0  0  0
    0.3550   -0.0980    4.9120 H   0  0  0  0  0  0  0  0  0  0  0  0
    0.4710    1.5460    4.0280 H   0  0  0  0  0  0  0  0  0  0  0  0
    1.0920    5.0250   -0.6760 H   0  0  0  0  0  0  0  0  0  0  0  0
    5.8010    5.9360    2.6090 H   0  0  0  0  0  0  0  0  0  0  0  0
    6.2030    4.3120    2.0030 H   0  0  0  0  0  0  0  0  0  0  0  0
    5.1660    4.4950    3.4380 H   0  0  0  0  0  0  0  0  0  0  0  0
    5.3060    7.2120    2.0870 H   0  0  0  0  0  0  0  0  0  0  0  0
    3.7680    8.1010    1.9670 H   0  0  0  0  0  0  0  0  0  0  0  0
    4.8040    7.9160    0.5310 H   0  0  0  0  0  0  0  0  0  0  0  0
  1  3  1  0  0  0  0
  1  5  1  0  0  0  0
  1 20  1  0  0  0  0
  2  4  1  0  0  0  0
  2  8  2  0  0  0  0
  2 12  1  0  0  0  0
  3  6  2  0  0  0  0
  3  9  1  0  0  0  0
  4 14  1  0  0  0  0
  4 15  2  0  0  0  0
  5  7  2  0  0  0  0
  5 17  1  0  0  0  0
  6  7  1  0  0  0  0
  8 11  1  0  0  0  0
  8 29  1  0  0  0  0
  9 13  1  0  0  0  0
 10 11  1  0  0  0  0
 10 12  2  0  0  0  0
 11 13  1  0  0  0  0
 12 30  1  0  0  0  0
 13 31  1  0  0  0  0
 13 32  1  0  0  0  0
 16 18  2  0  0  0  0
 16 19  1  0  0  0  0
 16 27  1  0  0  0  0
 17 22  1  0  0  0  0
 17 33  1  0  0  0  0
 17 34  1  0  0  0  0
 18 23  1  0  0  0  0
 18 28  1  0  0  0  0
 19 24  2  0  0  0  0
 19 35  1  0  0  0  0
 20 21  1  0  0  0  0
 20 36  1  0  0  0  0
 20 37  1  0  0  0  0
 21 25  2  0  0  0  0
 21 38  1  0  0  0  0
 22 24  1  0  0  0  0
 23 26  2  0  0  0  0
 23 39  1  0  0  0  0
 24 26  1  0  0  0  0
 25 40  1  0  0  0  0
 25 41  1  0  0  0  0
 26 42  1  0  0  0  0
 27 43  1  0  0  0  0
 27 44  1  0  0  0  0
 27 45  1  0  0  0  0
 28 46  1  0  0  0  0
 28 47  1  0  0  0  0
 28 48  1  0  0  0  0
M  CHG  1   4   1
M  CHG  1  14  -1
M  END
>  <$CLUSTER>
971

>  <INDEX>
634053

$$$$
Chem T&I SHCLME-009624
  MOE2020           3D

 50 53  0  0  0  0  0  0  0  0999 V2000
    0.4780    0.2310    0.0580 C   0  0  0  0  0  0  0  0  0  0  0  0
    0.1710   -1.1650    0.2660 C   0  0  0  0  0  0  0  0  0  0  0  0
   -0.1590    1.3450    0.5490 N   0  0  0  0  0  0  0  0  0  0  0  0
    1.4690    0.5940   -0.7270 N   0  0  0  0  0  0  0  0  0  0  0  0
    0.5370    2.4070    0.0280 C   0  0  0  0  0  0  0  0  0  0  0  0
    1.5130    1.9680   -0.7370 N   0  0  0  0  0  0  0  0  0  0  0  0
    0.2220   -1.7280    1.5190 C   0  0  0  0  0  0  0  0  0  0  0  0
    2.8400    2.2450   -4.3820 C   0  0  0  0  0  0  0  0  0  0  0  0
   -0.1710   -2.1050   -0.7660 C   0  0  0  0  0  0  0  0  0  0  0  0
   -0.1690   -3.3870    1.4850 S   0  0  0  0  0  0  0  0  0  0  0  0
    1.9730    3.3030   -4.0340 C   0  0  0  0  0  0  0  0  0  0  0  0
    3.6680    1.5560   -3.3670 C   0  0  0  0  0  0  0  0  0  0  0  0
    1.8830    3.7760   -2.7100 N   0  0  0  0  0  0  0  0  0  0  0  0
    0.1370    4.0630    0.3330 S   0  0  0  0  0  0  0  0  0  0  0  0
   -0.3900   -3.3780   -0.2250 C   0  0  0  0  0  0  0  0  0  0  0  0
    1.1830    4.7820   -2.1360 C   0  0  0  0  0  0  0  0  0  0  0  0
    3.1890    1.2500   -2.2800 O   0  0  0  0  0  0  0  0  0  0  0  0
   -1.3240    1.3720    1.4120 C   0  0  0  0  0  0  0  0  0  0  0  0
    0.3780    5.4700   -2.7530 O   0  0  0  0  0  0  0  0  0  0  0  0
    1.4010    4.9200   -0.6320 C   0  0  0  0  0  0  0  0  0  0  0  0
   -2.6240    1.3310    0.6250 C   0  0  0  0  0  0  0  0  0  0  0  0
    4.9750    1.3140   -3.7260 N   0  0  0  0  0  0  0  0  0  0  0  0
   -3.5740    0.4260    0.7840 C   0  0  0  0  0  0  0  0  0  0  0  0
    2.9150    1.7880   -5.7070 C   0  0  0  0  0  0  0  0  0  0  0  0
   -0.3190   -1.9480   -2.1680 C   0  0  0  0  0  0  0  0  0  0  0  0
    1.2020    3.8860   -5.0500 C   0  0  0  0  0  0  0  0  0  0  0  0
   -0.7460   -4.4740   -1.0360 C   0  0  0  0  0  0  0  0  0  0  0  0
    2.1400    2.3840   -6.6980 C   0  0  0  0  0  0  0  0  0  0  0  0
   -0.6710   -3.0340   -2.9740 C   0  0  0  0  0  0  0  0  0  0  0  0
    1.2870    3.4320   -6.3700 C   0  0  0  0  0  0  0  0  0  0  0  0
   -0.8820   -4.2840   -2.4120 C   0  0  0  0  0  0  0  0  0  0  0  0
    0.4790   -1.1850    2.4170 H   0  0  0  0  0  0  0  0  0  0  0  0
    2.4560    3.2600   -2.0580 H   0  0  0  0  0  0  0  0  0  0  0  0
   -1.3010    2.2870    2.0040 H   0  0  0  0  0  0  0  0  0  0  0  0
   -1.2890    0.5090    2.0760 H   0  0  0  0  0  0  0  0  0  0  0  0
    2.3760    4.5020   -0.3800 H   0  0  0  0  0  0  0  0  0  0  0  0
    1.3810    5.9780   -0.3720 H   0  0  0  0  0  0  0  0  0  0  0  0
   -2.7830    2.0980   -0.1190 H   0  0  0  0  0  0  0  0  0  0  0  0
    5.6010    0.8590   -3.0770 H   0  0  0  0  0  0  0  0  0  0  0  0
    5.3080    1.5920   -4.6380 H   0  0  0  0  0  0  0  0  0  0  0  0
   -4.4690    0.4710    0.1810 H   0  0  0  0  0  0  0  0  0  0  0  0
   -3.4550   -0.3580    1.5170 H   0  0  0  0  0  0  0  0  0  0  0  0
    3.5760    0.9720   -5.9580 H   0  0  0  0  0  0  0  0  0  0  0  0
   -0.1580   -0.9790   -2.6170 H   0  0  0  0  0  0  0  0  0  0  0  0
    0.5320    4.6980   -4.8090 H   0  0  0  0  0  0  0  0  0  0  0  0
   -0.9110   -5.4480   -0.5990 H   0  0  0  0  0  0  0  0  0  0  0  0
    2.2010    2.0340   -7.7180 H   0  0  0  0  0  0  0  0  0  0  0  0
   -0.7790   -2.8990   -4.0400 H   0  0  0  0  0  0  0  0  0  0  0  0
    0.6870    3.8980   -7.1380 H   0  0  0  0  0  0  0  0  0  0  0  0
   -1.1540   -5.1170   -3.0440 H   0  0  0  0  0  0  0  0  0  0  0  0
  1  2  1  0  0  0  0
  1  3  1  0  0  0  0
  1  4  2  0  0  0  0
  2  7  2  0  0  0  0
  2  9  1  0  0  0  0
  3  5  1  0  0  0  0
  3 18  1  0  0  0  0
  4  6  1  0  0  0  0
  5  6  2  0  0  0  0
  5 14  1  0  0  0  0
  7 10  1  0  0  0  0
  7 32  1  0  0  0  0
  8 11  2  0  0  0  0
  8 12  1  0  0  0  0
  8 24  1  0  0  0  0
  9 15  2  0  0  0  0
  9 25  1  0  0  0  0
 10 15  1  0  0  0  0
 11 13  1  0  0  0  0
 11 26  1  0  0  0  0
 12 17  2  0  0  0  0
 12 22  1  0  0  0  0
 13 16  1  0  0  0  0
 13 33  1  0  0  0  0
 14 20  1  0  0  0  0
 15 27  1  0  0  0  0
 16 19  2  0  0  0  0
 16 20  1  0  0  0  0
 18 21  1  0  0  0  0
 18 34  1  0  0  0  0
 18 35  1  0  0  0  0
 20 36  1  0  0  0  0
 20 37  1  0  0  0  0
 21 23  2  0  0  0  0
 21 38  1  0  0  0  0
 22 39  1  0  0  0  0
 22 40  1  0  0  0  0
 23 41  1  0  0  0  0
 23 42  1  0  0  0  0
 24 28  2  0  0  0  0
 24 43  1  0  0  0  0
 25 29  2  0  0  0  0
 25 44  1  0  0  0  0
 26 30  2  0  0  0  0
 26 45  1  0  0  0  0
 27 31  2  0  0  0  0
 27 46  1  0  0  0  0
 28 30  1  0  0  0  0
 28 47  1  0  0  0  0
 29 31  1  0  0  0  0
 29 48  1  0  0  0  0
 30 49  1  0  0  0  0
 31 50  1  0  0  0  0
M  END
>  <$CLUSTER>
972

>  <INDEX>
628405

$$$$
Chem T&I IVK/0002196
  MOE2020           3D

 40 43  0  0  0  0  0  0  0  0999 V2000
   -6.2060    2.5480   -0.6750 N   0  0  0  0  0  0  0  0  0  0  0  0
   -0.7730   -0.0370    0.8780 N   0  0  0  0  0  0  0  0  0  0  0  0
   -4.8620    2.6730   -0.8370 C   0  0  0  0  0  0  0  0  0  0  0  0
   -0.1820    0.3990   -0.2930 C   0  0  0  0  0  0  0  0  0  0  0  0
   -0.6590    1.5960   -0.5840 N   0  0  0  0  0  0  0  0  0  0  0  0
   -1.6460    0.9570    1.2370 C   0  0  0  0  0  0  0  0  0  0  0  0
   -6.7750    2.3990    0.5510 C   0  0  0  0  0  0  0  0  0  0  0  0
   -1.5850    1.9390    0.3690 N   0  0  0  0  0  0  0  0  0  0  0  0
   -4.0040    2.6590    0.1310 N   0  0  0  0  0  0  0  0  0  0  0  0
   -5.8230    2.3830    1.6670 C   0  0  0  0  0  0  0  0  0  0  0  0
   -4.5250    2.5140    1.4050 C   0  0  0  0  0  0  0  0  0  0  0  0
   -4.4300    2.8470   -2.5230 S   0  0  0  0  0  0  0  0  0  0  0  0
   -2.6430    0.9000    2.6520 S   0  0  0  0  0  0  0  0  0  0  0  0
   -6.9050    2.5930   -1.8880 C   0  0  0  0  0  0  0  0  0  0  0  0
   -6.1220    2.7470   -2.9680 C   0  0  0  0  0  0  0  0  0  0  0  0
   -7.9800    2.2860    0.7480 O   0  0  0  0  0  0  0  0  0  0  0  0
    0.8310   -0.3090   -1.0650 C   0  0  0  0  0  0  0  0  0  0  0  0
   -3.5090    2.4810    2.5430 C   0  0  0  0  0  0  0  0  0  0  0  0
   -0.5020   -1.2810    1.5760 C   0  0  0  0  0  0  0  0  0  0  0  0
    2.1250    0.2190   -1.1630 C   0  0  0  0  0  0  0  0  0  0  0  0
    0.5220   -1.4940   -1.7440 C   0  0  0  0  0  0  0  0  0  0  0  0
    0.6370   -1.1470    2.5730 C   0  0  0  0  0  0  0  0  0  0  0  0
    3.1000   -0.4420   -1.9120 C   0  0  0  0  0  0  0  0  0  0  0  0
    1.4990   -2.1530   -2.4930 C   0  0  0  0  0  0  0  0  0  0  0  0
    2.7880   -1.6280   -2.5750 C   0  0  0  0  0  0  0  0  0  0  0  0
   -6.1700    2.2670    2.6830 H   0  0  0  0  0  0  0  0  0  0  0  0
   -7.9800    2.5110   -1.9490 H   0  0  0  0  0  0  0  0  0  0  0  0
   -6.4890    2.8020   -3.9820 H   0  0  0  0  0  0  0  0  0  0  0  0
   -4.0310    2.6590    3.4830 H   0  0  0  0  0  0  0  0  0  0  0  0
   -2.7760    3.2710    2.3800 H   0  0  0  0  0  0  0  0  0  0  0  0
   -0.2380   -2.0440    0.8430 H   0  0  0  0  0  0  0  0  0  0  0  0
   -1.4020   -1.5860    2.1110 H   0  0  0  0  0  0  0  0  0  0  0  0
    2.3690    1.1410   -0.6570 H   0  0  0  0  0  0  0  0  0  0  0  0
   -0.4770   -1.9000   -1.6880 H   0  0  0  0  0  0  0  0  0  0  0  0
    1.5430   -0.8420    2.0500 H   0  0  0  0  0  0  0  0  0  0  0  0
    0.8050   -2.1060    3.0630 H   0  0  0  0  0  0  0  0  0  0  0  0
    0.3790   -0.3970    3.3210 H   0  0  0  0  0  0  0  0  0  0  0  0
    4.0980   -0.0340   -1.9780 H   0  0  0  0  0  0  0  0  0  0  0  0
    1.2560   -3.0700   -3.0090 H   0  0  0  0  0  0  0  0  0  0  0  0
    3.5440   -2.1400   -3.1520 H   0  0  0  0  0  0  0  0  0  0  0  0
  1  3  1  0  0  0  0
  1  7  1  0  0  0  0
  1 14  1  0  0  0  0
  2  4  1  0  0  0  0
  2  6  1  0  0  0  0
  2 19  1  0  0  0  0
  3  9  2  0  0  0  0
  3 12  1  0  0  0  0
  4  5  2  0  0  0  0
  4 17  1  0  0  0  0
  5  8  1  0  0  0  0
  6  8  2  0  0  0  0
  6 13  1  0  0  0  0
  7 10  1  0  0  0  0
  7 16  2  0  0  0  0
  9 11  1  0  0  0  0
 10 11  2  0  0  0  0
 10 26  1  0  0  0  0
 11 18  1  0  0  0  0
 12 15  1  0  0  0  0
 13 18  1  0  0  0  0
 14 15  2  0  0  0  0
 14 27  1  0  0  0  0
 15 28  1  0  0  0  0
 17 20  2  0  0  0  0
 17 21  1  0  0  0  0
 18 29  1  0  0  0  0
 18 30  1  0  0  0  0
 19 22  1  0  0  0  0
 19 31  1  0  0  0  0
 19 32  1  0  0  0  0
 20 23  1  0  0  0  0
 20 33  1  0  0  0  0
 21 24  2  0  0  0  0
 21 34  1  0  0  0  0
 22 35  1  0  0  0  0
 22 36  1  0  0  0  0
 22 37  1  0  0  0  0
 23 25  2  0  0  0  0
 23 38  1  0  0  0  0
 24 25  1  0  0  0  0
 24 39  1  0  0  0  0
 25 40  1  0  0  0  0
M  END
>  <$CLUSTER>
973

>  <INDEX>
553681

$$$$
Chem T&I SHCLME-050495
  MOE2020           3D

 54 56  0  0  1  0  0  0  0  0999 V2000
   -2.5050   -1.1790   -2.5870 N   0  0  0  0  0  0  0  0  0  0  0  0
   -2.4050   -0.3470   -1.5430 C   0  0  0  0  0  0  0  0  0  0  0  0
   -2.6100    0.8970   -1.9170 N   0  0  0  0  0  0  0  0  0  0  0  0
   -2.8110   -0.3900   -3.6530 C   0  0  0  0  0  0  0  0  0  0  0  0
   -2.8790    0.8630   -3.2680 N   0  0  0  0  0  0  0  0  0  0  0  0
   -2.0370   -0.7830   -0.1280 C   0  0  3  0  0  0  0  0  0  0  0  0
   -3.0620   -0.9730   -5.2740 S   0  0  0  0  0  0  0  0  0  0  0  0
   -2.1800    1.4460   -6.3030 C   0  0  0  0  0  0  0  0  0  0  0  0
    0.9580    4.5440   -5.6400 C   0  0  0  0  0  0  0  0  0  0  0  0
   -1.2400    0.2250    0.5040 O   0  0  0  0  0  0  0  0  0  0  0  0
   -2.0780    2.4050   -5.3530 N   0  0  0  0  0  0  0  0  0  0  0  0
    2.1630    4.6450   -6.5190 C   0  0  0  0  0  0  0  0  0  0  0  0
    0.0240    3.5390   -5.9130 C   0  0  0  0  0  0  0  0  0  0  0  0
   -1.1200    3.4030   -5.1190 C   0  0  0  0  0  0  0  0  0  0  0  0
   -1.3170    1.2570   -7.1530 O   0  0  0  0  0  0  0  0  0  0  0  0
    2.3110    3.8570   -7.4520 O   0  0  0  0  0  0  0  0  0  0  0  0
   -3.4130    0.5570   -6.1680 C   0  0  0  0  0  0  0  0  0  0  0  0
   -2.3500   -2.6100   -2.6070 C   0  0  0  0  0  0  0  0  0  0  0  0
    0.1200    0.1900    0.3610 C   0  0  0  0  0  0  0  0  0  0  0  0
    2.9190    0.3510    0.2530 C   0  0  0  0  0  0  0  0  0  0  0  0
    0.8440   -0.6760   -0.4620 C   0  0  0  0  0  0  0  0  0  0  0  0
    0.8110    1.1410    1.1230 C   0  0  0  0  0  0  0  0  0  0  0  0
    2.2030    1.2200    1.0720 C   0  0  0  0  0  0  0  0  0  0  0  0
    2.2390   -0.5940   -0.5130 C   0  0  0  0  0  0  0  0  0  0  0  0
    0.7590    5.4200   -4.5750 C   0  0  0  0  0  0  0  0  0  0  0  0
   -0.3750    5.2930   -3.7790 C   0  0  0  0  0  0  0  0  0  0  0  0
   -3.3020   -0.9320    0.7170 C   0  0  0  0  0  0  0  0  0  0  0  0
   -1.3090    4.2910   -4.0490 C   0  0  0  0  0  0  0  0  0  0  0  0
    3.1820    5.7180   -6.2440 C   0  0  0  0  0  0  0  0  0  0  0  0
    4.4080    0.4320    0.1970 C   0  0  0  0  0  0  0  0  0  0  0  0
   -1.4950   -1.7260   -0.1990 H   0  0  0  0  0  0  0  0  0  0  0  0
   -2.8360    2.4010   -4.6850 H   0  0  0  0  0  0  0  0  0  0  0  0
    0.1870    2.8650   -6.7410 H   0  0  0  0  0  0  0  0  0  0  0  0
   -4.1850    1.1080   -5.6300 H   0  0  0  0  0  0  0  0  0  0  0  0
   -3.7740    0.3050   -7.1650 H   0  0  0  0  0  0  0  0  0  0  0  0
   -2.1060   -2.9630   -1.6050 H   0  0  0  0  0  0  0  0  0  0  0  0
   -1.5470   -2.8790   -3.2930 H   0  0  0  0  0  0  0  0  0  0  0  0
   -3.2800   -3.0720   -2.9380 H   0  0  0  0  0  0  0  0  0  0  0  0
    0.3250   -1.4100   -1.0600 H   0  0  0  0  0  0  0  0  0  0  0  0
    0.2600    1.8200    1.7570 H   0  0  0  0  0  0  0  0  0  0  0  0
    2.7250    1.9550    1.6670 H   0  0  0  0  0  0  0  0  0  0  0  0
    2.7930   -1.2670   -1.1500 H   0  0  0  0  0  0  0  0  0  0  0  0
    1.4820    6.1950   -4.3680 H   0  0  0  0  0  0  0  0  0  0  0  0
   -0.5330    5.9700   -2.9520 H   0  0  0  0  0  0  0  0  0  0  0  0
   -3.8200    0.0260    0.7680 H   0  0  0  0  0  0  0  0  0  0  0  0
   -3.0310   -1.2530    1.7230 H   0  0  0  0  0  0  0  0  0  0  0  0
   -3.9570   -1.6750    0.2630 H   0  0  0  0  0  0  0  0  0  0  0  0
   -2.1870    4.1980   -3.4270 H   0  0  0  0  0  0  0  0  0  0  0  0
    2.8670    6.3060   -5.3820 H   0  0  0  0  0  0  0  0  0  0  0  0
    3.2690    6.3680   -7.1140 H   0  0  0  0  0  0  0  0  0  0  0  0
    4.1480    5.2570   -6.0370 H   0  0  0  0  0  0  0  0  0  0  0  0
    4.7540    1.2260    0.8590 H   0  0  0  0  0  0  0  0  0  0  0  0
    4.7220    0.6480   -0.8240 H   0  0  0  0  0  0  0  0  0  0  0  0
    4.8360   -0.5190    0.5150 H   0  0  0  0  0  0  0  0  0  0  0  0
  1  2  1  0  0  0  0
  1  4  1  0  0  0  0
  1 18  1  0  0  0  0
  2  3  2  0  0  0  0
  2  6  1  0  0  0  0
  3  5  1  0  0  0  0
  4  5  2  0  0  0  0
  4  7  1  0  0  0  0
  6 10  1  0  0  0  0
  6 27  1  0  0  0  0
  6 31  1  0  0  0  0
  7 17  1  0  0  0  0
  8 11  1  0  0  0  0
  8 15  2  0  0  0  0
  8 17  1  0  0  0  0
  9 12  1  0  0  0  0
  9 13  2  0  0  0  0
  9 25  1  0  0  0  0
 10 19  1  0  0  0  0
 11 14  1  0  0  0  0
 11 32  1  0  0  0  0
 12 16  2  0  0  0  0
 12 29  1  0  0  0  0
 13 14  1  0  0  0  0
 13 33  1  0  0  0  0
 14 28  2  0  0  0  0
 17 34  1  0  0  0  0
 17 35  1  0  0  0  0
 18 36  1  0  0  0  0
 18 37  1  0  0  0  0
 18 38  1  0  0  0  0
 19 21  1  0  0  0  0
 19 22  2  0  0  0  0
 20 23  2  0  0  0  0
 20 24  1  0  0  0  0
 20 30  1  0  0  0  0
 21 24  2  0  0  0  0
 21 39  1  0  0  0  0
 22 23  1  0  0  0  0
 22 40  1  0  0  0  0
 23 41  1  0  0  0  0
 24 42  1  0  0  0  0
 25 26  2  0  0  0  0
 25 43  1  0  0  0  0
 26 28  1  0  0  0  0
 26 44  1  0  0  0  0
 27 45  1  0  0  0  0
 27 46  1  0  0  0  0
 27 47  1  0  0  0  0
 28 48  1  0  0  0  0
 29 49  1  0  0  0  0
 29 50  1  0  0  0  0
 29 51  1  0  0  0  0
 30 52  1  0  0  0  0
 30 53  1  0  0  0  0
 30 54  1  0  0  0  0
M  END
>  <$CLUSTER>
974

>  <INDEX>
634969

$$$$
Chem T&I SHCLME-050195
  MOE2020           3D

 47 49  0  0  1  0  0  0  0  0999 V2000
    0.0270   -0.5780    0.0880 N   0  0  0  0  0  0  0  0  0  0  0  0
   -0.1590    0.6790    0.6240 C   0  0  0  0  0  0  0  0  0  0  0  0
   -0.3510    1.5370   -0.3610 N   0  0  0  0  0  0  0  0  0  0  0  0
   -0.0450   -0.4090   -1.2700 C   0  0  0  0  0  0  0  0  0  0  0  0
   -0.2750    0.8530   -1.5500 N   0  0  0  0  0  0  0  0  0  0  0  0
    1.7660    2.4900   -4.0000 C   0  0  0  0  0  0  0  0  0  0  0  0
    3.3420    2.3540   -4.6500 S   0  0  0  0  0  0  0  0  0  0  0  0
    0.9600    1.3880   -3.9060 N   0  0  0  0  0  0  0  0  0  0  0  0
    1.4480    3.7100   -3.6180 N   0  0  0  0  0  0  0  0  0  0  0  0
    2.4720    4.6120   -3.8320 N   0  0  0  0  0  0  0  0  0  0  0  0
   -0.1580    1.0020    2.0790 C   0  0  3  0  0  0  0  0  0  0  0  0
    0.1520   -1.6960   -2.4120 S   0  0  0  0  0  0  0  0  0  0  0  0
    3.5230    4.0320   -4.3670 C   0  0  0  0  0  0  0  0  0  0  0  0
    1.1430    0.1000   -4.2810 C   0  0  0  0  0  0  0  0  0  0  0  0
    0.4480    2.2840    2.2340 O   0  0  0  0  0  0  0  0  0  0  0  0
    1.7860    2.4260    2.4100 C   0  0  0  0  0  0  0  0  0  0  0  0
    2.1980   -0.3130   -4.7490 O   0  0  0  0  0  0  0  0  0  0  0  0
   -0.0390   -0.8160   -3.9780 C   0  0  0  0  0  0  0  0  0  0  0  0
    0.2460   -1.8060    0.8280 C   0  0  0  0  0  0  0  0  0  0  0  0
    2.7320    1.4080    2.2680 C   0  0  0  0  0  0  0  0  0  0  0  0
    4.0920    1.6850    2.4380 C   0  0  0  0  0  0  0  0  0  0  0  0
   -1.5660    1.0380    2.6520 C   0  0  0  0  0  0  0  0  0  0  0  0
    3.5790    3.9960    2.8860 C   0  0  0  0  0  0  0  0  0  0  0  0
    2.2220    3.7220    2.7150 C   0  0  0  0  0  0  0  0  0  0  0  0
    4.5170    2.9760    2.7470 C   0  0  0  0  0  0  0  0  0  0  0  0
    5.0990    0.5880    2.2870 C   0  0  0  0  0  0  0  0  0  0  0  0
    1.7200   -2.0880    1.0660 C   0  0  0  0  0  0  0  0  0  0  0  0
    0.0630    1.5690   -3.4780 H   0  0  0  0  0  0  0  0  0  0  0  0
    0.3920    0.2290    2.6160 H   0  0  0  0  0  0  0  0  0  0  0  0
    4.4270    4.5710   -4.6080 H   0  0  0  0  0  0  0  0  0  0  0  0
   -0.9460   -0.2130   -3.9320 H   0  0  0  0  0  0  0  0  0  0  0  0
   -0.1300   -1.5470   -4.7810 H   0  0  0  0  0  0  0  0  0  0  0  0
   -0.1820   -2.6350    0.2640 H   0  0  0  0  0  0  0  0  0  0  0  0
   -0.2550   -1.7270    1.7930 H   0  0  0  0  0  0  0  0  0  0  0  0
    2.4120    0.4050    2.0260 H   0  0  0  0  0  0  0  0  0  0  0  0
   -2.1480    1.8020    2.1370 H   0  0  0  0  0  0  0  0  0  0  0  0
   -1.5200    1.2720    3.7160 H   0  0  0  0  0  0  0  0  0  0  0  0
   -2.0390    0.0660    2.5140 H   0  0  0  0  0  0  0  0  0  0  0  0
    3.9020    4.9980    3.1260 H   0  0  0  0  0  0  0  0  0  0  0  0
    1.4990    4.5180    2.8190 H   0  0  0  0  0  0  0  0  0  0  0  0
    5.5690    3.1840    2.8780 H   0  0  0  0  0  0  0  0  0  0  0  0
    4.5880   -0.3440    2.0470 H   0  0  0  0  0  0  0  0  0  0  0  0
    5.6510    0.4700    3.2200 H   0  0  0  0  0  0  0  0  0  0  0  0
    5.7920    0.8390    1.4840 H   0  0  0  0  0  0  0  0  0  0  0  0
    2.2340   -2.1700    0.1080 H   0  0  0  0  0  0  0  0  0  0  0  0
    1.8270   -3.0230    1.6170 H   0  0  0  0  0  0  0  0  0  0  0  0
    2.1570   -1.2740    1.6440 H   0  0  0  0  0  0  0  0  0  0  0  0
  1  2  1  0  0  0  0
  1  4  1  0  0  0  0
  1 19  1  0  0  0  0
  2  3  2  0  0  0  0
  2 11  1  0  0  0  0
  3  5  1  0  0  0  0
  4  5  2  0  0  0  0
  4 12  1  0  0  0  0
  6  7  1  0  0  0  0
  6  8  1  0  0  0  0
  6  9  2  0  0  0  0
  7 13  1  0  0  0  0
  8 14  1  0  0  0  0
  8 28  1  0  0  0  0
  9 10  1  0  0  0  0
 10 13  2  0  0  0  0
 11 15  1  0  0  0  0
 11 22  1  0  0  0  0
 11 29  1  0  0  0  0
 12 18  1  0  0  0  0
 13 30  1  0  0  0  0
 14 17  2  0  0  0  0
 14 18  1  0  0  0  0
 15 16  1  0  0  0  0
 16 20  2  0  0  0  0
 16 24  1  0  0  0  0
 18 31  1  0  0  0  0
 18 32  1  0  0  0  0
 19 27  1  0  0  0  0
 19 33  1  0  0  0  0
 19 34  1  0  0  0  0
 20 21  1  0  0  0  0
 20 35  1  0  0  0  0
 21 25  2  0  0  0  0
 21 26  1  0  0  0  0
 22 36  1  0  0  0  0
 22 37  1  0  0  0  0
 22 38  1  0  0  0  0
 23 24  2  0  0  0  0
 23 25  1  0  0  0  0
 23 39  1  0  0  0  0
 24 40  1  0  0  0  0
 25 41  1  0  0  0  0
 26 42  1  0  0  0  0
 26 43  1  0  0  0  0
 26 44  1  0  0  0  0
 27 45  1  0  0  0  0
 27 46  1  0  0  0  0
 27 47  1  0  0  0  0
M  END
>  <$CLUSTER>
975

>  <INDEX>
634925

$$$$
Maybridge KM 08587
  MOE2020           3D

 33 35  0  0  0  0  0  0  0  0999 V2000
    1.6550   -0.6060   -2.2340 S   0  0  0  0  0  0  0  0  0  0  0  0
    0.5320   -0.3320    1.0680 N   0  0  0  0  0  0  0  0  0  0  0  0
    0.1770    0.2560   -0.1190 C   0  0  0  0  0  0  0  0  0  0  0  0
   -0.6370   -0.5710    1.6040 C   0  0  0  0  0  0  0  0  0  0  0  0
    1.1780    0.7250   -1.0980 C   0  0  0  0  0  0  0  0  0  0  0  0
   -1.1430    0.3880   -0.3150 N   0  0  0  0  0  0  0  0  0  0  0  0
   -1.6890   -0.1730    0.8440 O   0  0  0  0  0  0  0  0  0  0  0  0
    2.8420    0.1880   -3.2940 C   0  0  0  0  0  0  0  0  0  0  0  0
    0.5000   -0.9340   -3.0410 O   0  0  0  0  0  0  0  0  0  0  0  0
    2.3570   -1.6110   -1.4680 O   0  0  0  0  0  0  0  0  0  0  0  0
   -0.9380   -1.1760    2.8400 C   0  0  0  0  0  0  0  0  0  0  0  0
    2.4980    0.5270   -4.5930 C   0  0  0  0  0  0  0  0  0  0  0  0
    4.1290    0.4190   -2.7980 C   0  0  0  0  0  0  0  0  0  0  0  0
    4.7410    1.3660   -4.9370 C   0  0  0  0  0  0  0  0  0  0  0  0
    3.4530    1.1220   -5.4170 C   0  0  0  0  0  0  0  0  0  0  0  0
    5.0780    1.0140   -3.6290 C   0  0  0  0  0  0  0  0  0  0  0  0
    5.5900    1.9390   -5.7920 F   0  0  0  0  0  0  0  0  0  0  0  0
   -2.2560   -1.3590    3.2710 C   0  0  0  0  0  0  0  0  0  0  0  0
    0.1170   -1.6020    3.6570 C   0  0  0  0  0  0  0  0  0  0  0  0
   -2.5170   -1.9630    4.5040 C   0  0  0  0  0  0  0  0  0  0  0  0
   -0.1450   -2.2050    4.8900 C   0  0  0  0  0  0  0  0  0  0  0  0
   -1.4620   -2.3850    5.3130 C   0  0  0  0  0  0  0  0  0  0  0  0
    0.7550    1.5490   -1.6730 H   0  0  0  0  0  0  0  0  0  0  0  0
    2.0630    1.0710   -0.5640 H   0  0  0  0  0  0  0  0  0  0  0  0
    1.5020    0.3330   -4.9630 H   0  0  0  0  0  0  0  0  0  0  0  0
    4.3840    0.1410   -1.7860 H   0  0  0  0  0  0  0  0  0  0  0  0
    3.1950    1.3950   -6.4300 H   0  0  0  0  0  0  0  0  0  0  0  0
    6.0750    1.2030   -3.2600 H   0  0  0  0  0  0  0  0  0  0  0  0
   -3.0760   -1.0320    2.6480 H   0  0  0  0  0  0  0  0  0  0  0  0
    1.1380   -1.4640    3.3320 H   0  0  0  0  0  0  0  0  0  0  0  0
   -3.5370   -2.1030    4.8310 H   0  0  0  0  0  0  0  0  0  0  0  0
    0.6720   -2.5320    5.5160 H   0  0  0  0  0  0  0  0  0  0  0  0
   -1.6650   -2.8510    6.2660 H   0  0  0  0  0  0  0  0  0  0  0  0
  1  5  1  0  0  0  0
  1  8  1  0  0  0  0
  1  9  2  0  0  0  0
  1 10  2  0  0  0  0
  2  3  1  0  0  0  0
  2  4  2  0  0  0  0
  3  5  1  0  0  0  0
  3  6  2  0  0  0  0
  4  7  1  0  0  0  0
  4 11  1  0  0  0  0
  5 23  1  0  0  0  0
  5 24  1  0  0  0  0
  6  7  1  0  0  0  0
  8 12  2  0  0  0  0
  8 13  1  0  0  0  0
 11 18  2  0  0  0  0
 11 19  1  0  0  0  0
 12 15  1  0  0  0  0
 12 25  1  0  0  0  0
 13 16  2  0  0  0  0
 13 26  1  0  0  0  0
 14 15  2  0  0  0  0
 14 16  1  0  0  0  0
 14 17  1  0  0  0  0
 15 27  1  0  0  0  0
 16 28  1  0  0  0  0
 18 20  1  0  0  0  0
 18 29  1  0  0  0  0
 19 21  2  0  0  0  0
 19 30  1  0  0  0  0
 20 22  2  0  0  0  0
 20 31  1  0  0  0  0
 21 22  1  0  0  0  0
 21 32  1  0  0  0  0
 22 33  1  0  0  0  0
M  END
>  <$CLUSTER>
976

>  <INDEX>
556855

$$$$
Life Chemicals F0828-0014
  MOE2020           3D

 46 47  0  0  0  0  0  0  0  0999 V2000
   -2.1010    0.5740   -0.7480 C   0  0  0  0  0  0  0  0  0  0  0  0
   -6.8420    1.2000    4.4040 C   0  0  0  0  0  0  0  0  0  0  0  0
   -0.7970    0.2980   -1.0370 N   0  0  0  0  0  0  0  0  0  0  0  0
    3.9060   -0.7280    3.2650 C   0  0  0  0  0  0  0  0  0  0  0  0
   -3.0750    1.3560   -1.8690 S   0  0  0  0  0  0  0  0  0  0  0  0
   -7.9110    1.7900    3.7330 C   0  0  0  0  0  0  0  0  0  0  0  0
   -5.5910    1.1220    3.7920 C   0  0  0  0  0  0  0  0  0  0  0  0
    3.7480   -1.1300    1.9040 O   0  0  0  0  0  0  0  0  0  0  0  0
   -2.6330    0.1520    0.4230 N   0  0  0  0  0  0  0  0  0  0  0  0
   -7.7310    2.3000    2.4500 C   0  0  0  0  0  0  0  0  0  0  0  0
    0.2870   -0.0580   -0.2100 C   0  0  0  0  0  0  0  0  0  0  0  0
    2.5650   -0.7520    1.2870 C   0  0  0  0  0  0  0  0  0  0  0  0
    5.1840   -1.0440    3.6220 F   0  0  0  0  0  0  0  0  0  0  0  0
    3.1000   -1.5010    4.0460 F   0  0  0  0  0  0  0  0  0  0  0  0
   -5.4030    1.6470    2.5120 C   0  0  0  0  0  0  0  0  0  0  0  0
   -6.4800    2.2230    1.8360 C   0  0  0  0  0  0  0  0  0  0  0  0
   -7.1140    0.7180    5.6710 O   0  0  0  0  0  0  0  0  0  0  0  0
    1.4260   -0.5860   -0.8390 C   0  0  0  0  0  0  0  0  0  0  0  0
    0.3220    0.1550    1.1710 C   0  0  0  0  0  0  0  0  0  0  0  0
    2.5540   -0.9410   -0.0940 C   0  0  0  0  0  0  0  0  0  0  0  0
    1.4520   -0.1980    1.9170 C   0  0  0  0  0  0  0  0  0  0  0  0
   -9.1130    1.8150    4.4140 O   0  0  0  0  0  0  0  0  0  0  0  0
   -3.8920    0.2470    1.0360 C   0  0  0  0  0  0  0  0  0  0  0  0
   -4.0460    1.5320    1.8300 C   0  0  0  0  0  0  0  0  0  0  0  0
   -6.0430    0.1120    6.3860 C   0  0  0  0  0  0  0  0  0  0  0  0
  -10.2270    2.4070    3.7570 C   0  0  0  0  0  0  0  0  0  0  0  0
   -0.5670    0.3600   -2.0190 H   0  0  0  0  0  0  0  0  0  0  0  0
    3.6760    0.3310    3.3810 H   0  0  0  0  0  0  0  0  0  0  0  0
   -4.7660    0.6550    4.3090 H   0  0  0  0  0  0  0  0  0  0  0  0
   -1.9650   -0.3510    0.9900 H   0  0  0  0  0  0  0  0  0  0  0  0
   -8.5600    2.7560    1.9290 H   0  0  0  0  0  0  0  0  0  0  0  0
   -6.3450    2.6100    0.8370 H   0  0  0  0  0  0  0  0  0  0  0  0
    1.4300   -0.7190   -1.9110 H   0  0  0  0  0  0  0  0  0  0  0  0
   -0.5300    0.5960    1.6670 H   0  0  0  0  0  0  0  0  0  0  0  0
    3.4170   -1.3620   -0.5880 H   0  0  0  0  0  0  0  0  0  0  0  0
    1.4620   -0.0410    2.9850 H   0  0  0  0  0  0  0  0  0  0  0  0
   -4.0190   -0.6000    1.7100 H   0  0  0  0  0  0  0  0  0  0  0  0
   -4.6620    0.2160    0.2650 H   0  0  0  0  0  0  0  0  0  0  0  0
   -3.2690    1.5640    2.5940 H   0  0  0  0  0  0  0  0  0  0  0  0
   -3.9250    2.3770    1.1520 H   0  0  0  0  0  0  0  0  0  0  0  0
   -6.3990   -0.2190    7.3620 H   0  0  0  0  0  0  0  0  0  0  0  0
   -5.2390    0.8360    6.5190 H   0  0  0  0  0  0  0  0  0  0  0  0
   -5.6710   -0.7450    5.8250 H   0  0  0  0  0  0  0  0  0  0  0  0
  -11.1010    2.3570    4.4070 H   0  0  0  0  0  0  0  0  0  0  0  0
  -10.4310    1.8690    2.8310 H   0  0  0  0  0  0  0  0  0  0  0  0
  -10.0030    3.4490    3.5290 H   0  0  0  0  0  0  0  0  0  0  0  0
  1  3  1  0  0  0  0
  1  5  2  0  0  0  0
  1  9  1  0  0  0  0
  2  6  2  0  0  0  0
  2  7  1  0  0  0  0
  2 17  1  0  0  0  0
  3 11  1  0  0  0  0
  3 27  1  0  0  0  0
  4  8  1  0  0  0  0
  4 13  1  0  0  0  0
  4 14  1  0  0  0  0
  4 28  1  0  0  0  0
  6 10  1  0  0  0  0
  6 22  1  0  0  0  0
  7 15  2  0  0  0  0
  7 29  1  0  0  0  0
  8 12  1  0  0  0  0
  9 23  1  0  0  0  0
  9 30  1  0  0  0  0
 10 16  2  0  0  0  0
 10 31  1  0  0  0  0
 11 18  2  0  0  0  0
 11 19  1  0  0  0  0
 12 20  2  0  0  0  0
 12 21  1  0  0  0  0
 15 16  1  0  0  0  0
 15 24  1  0  0  0  0
 16 32  1  0  0  0  0
 17 25  1  0  0  0  0
 18 20  1  0  0  0  0
 18 33  1  0  0  0  0
 19 21  2  0  0  0  0
 19 34  1  0  0  0  0
 20 35  1  0  0  0  0
 21 36  1  0  0  0  0
 22 26  1  0  0  0  0
 23 24  1  0  0  0  0
 23 37  1  0  0  0  0
 23 38  1  0  0  0  0
 24 39  1  0  0  0  0
 24 40  1  0  0  0  0
 25 41  1  0  0  0  0
 25 42  1  0  0  0  0
 25 43  1  0  0  0  0
 26 44  1  0  0  0  0
 26 45  1  0  0  0  0
 26 46  1  0  0  0  0
M  END
>  <$CLUSTER>
977

>  <INDEX>
289825

$$$$
Maybridge SEW 00369
  MOE2020           3D

 33 34  0  0  0  0  0  0  0  0999 V2000
    0.6950    1.3020    0.4400 C   0  0  0  0  0  0  0  0  0  0  0  0
   -0.4900   -1.3030   -0.8660 C   0  0  0  0  0  0  0  0  0  0  0  0
    0.2270    0.1050    0.7700 N   0  0  0  0  0  0  0  0  0  0  0  0
   -0.7240   -0.3170    0.0800 N   0  0  0  0  0  0  0  0  0  0  0  0
   -1.6410   -1.6600   -1.5410 N   0  0  0  0  0  0  0  0  0  0  0  0
    0.2700    2.0930   -0.5400 N   0  3  0  0  0  0  0  0  0  0  0  0
    1.8170    1.8180    1.2510 C   0  0  0  0  0  0  0  0  0  0  0  0
    2.3070    3.1080    0.8820 N   0  0  0  0  0  0  0  0  0  0  0  0
    0.6050   -1.8130   -1.0970 O   0  0  0  0  0  0  0  0  0  0  0  0
   -1.8550   -2.6060   -2.5660 C   0  0  0  0  0  0  0  0  0  0  0  0
   -2.4020   -4.4580   -4.6070 C   0  0  0  0  0  0  0  0  0  0  0  0
   -2.7420   -5.5770   -5.8420 Cl  0  0  0  0  0  0  0  0  0  0  0  0
   -0.8310   -3.3940   -3.0990 C   0  0  0  0  0  0  0  0  0  0  0  0
   -3.1570   -2.7570   -3.0680 C   0  0  0  0  0  0  0  0  0  0  0  0
   -1.1060   -4.3150   -4.1160 C   0  0  0  0  0  0  0  0  0  0  0  0
   -3.4280   -3.6770   -4.0830 C   0  0  0  0  0  0  0  0  0  0  0  0
    3.3350    3.6520    1.5770 C   0  0  0  0  0  0  0  0  0  0  0  0
    2.4420    1.1780    2.3370 C   0  0  0  0  0  0  0  0  0  0  0  0
    3.9550    3.0260    2.6460 C   0  0  0  0  0  0  0  0  0  0  0  0
    3.4990    1.7690    3.0290 C   0  0  0  0  0  0  0  0  0  0  0  0
    0.6160   -0.4310    1.5320 H   0  0  0  0  0  0  0  0  0  0  0  0
   -1.6540    0.0560    0.2100 H   0  0  0  0  0  0  0  0  0  0  0  0
   -2.4690   -1.1590   -1.2520 H   0  0  0  0  0  0  0  0  0  0  0  0
    0.7110    2.9880   -0.6930 H   0  0  0  0  0  0  0  0  0  0  0  0
   -0.4940    1.7990   -1.1310 H   0  0  0  0  0  0  0  0  0  0  0  0
    0.1770   -3.2920   -2.7240 H   0  0  0  0  0  0  0  0  0  0  0  0
   -3.9580   -2.1550   -2.6650 H   0  0  0  0  0  0  0  0  0  0  0  0
   -0.3080   -4.9190   -4.5230 H   0  0  0  0  0  0  0  0  0  0  0  0
   -4.4340   -3.7830   -4.4610 H   0  0  0  0  0  0  0  0  0  0  0  0
    3.6910    4.6280    1.2810 H   0  0  0  0  0  0  0  0  0  0  0  0
    2.0940    0.2030    2.6430 H   0  0  0  0  0  0  0  0  0  0  0  0
    4.7720    3.5020    3.1690 H   0  0  0  0  0  0  0  0  0  0  0  0
    3.9610    1.2530    3.8580 H   0  0  0  0  0  0  0  0  0  0  0  0
  1  3  1  0  0  0  0
  1  6  2  0  0  0  0
  1  7  1  0  0  0  0
  2  4  1  0  0  0  0
  2  5  1  0  0  0  0
  2  9  2  0  0  0  0
  3  4  1  0  0  0  0
  3 21  1  0  0  0  0
  4 22  1  0  0  0  0
  5 10  1  0  0  0  0
  5 23  1  0  0  0  0
  6 24  1  0  0  0  0
  6 25  1  0  0  0  0
  7  8  2  0  0  0  0
  7 18  1  0  0  0  0
  8 17  1  0  0  0  0
 10 13  2  0  0  0  0
 10 14  1  0  0  0  0
 11 12  1  0  0  0  0
 11 15  2  0  0  0  0
 11 16  1  0  0  0  0
 13 15  1  0  0  0  0
 13 26  1  0  0  0  0
 14 16  2  0  0  0  0
 14 27  1  0  0  0  0
 15 28  1  0  0  0  0
 16 29  1  0  0  0  0
 17 19  2  0  0  0  0
 17 30  1  0  0  0  0
 18 20  2  0  0  0  0
 18 31  1  0  0  0  0
 19 20  1  0  0  0  0
 19 32  1  0  0  0  0
 20 33  1  0  0  0  0
M  CHG  1   6   1
M  END
>  <$CLUSTER>
978

>  <INDEX>
624644

$$$$
Menai CB315
  MOE2020           3D

 48 51  0  0  1  0  0  0  0  0999 V2000
   -0.0150    1.2080    0.0380 C   0  0  0  0  0  0  0  0  0  0  0  0
   -0.2520    1.1710   -1.4460 C   0  0  3  0  0  0  0  0  0  0  0  0
    0.5240    0.2140    0.7700 C   0  0  0  0  0  0  0  0  0  0  0  0
   -0.9440   -0.0280   -1.8810 N   0  0  0  0  0  0  0  0  0  0  0  0
   -0.3200    2.5210    0.6850 C   0  0  0  0  0  0  0  0  0  0  0  0
    0.9260   -1.0260    0.3070 N   0  0  0  0  0  0  0  0  0  0  0  0
    1.0280    1.3940   -2.2520 C   0  0  0  0  0  0  0  0  0  0  0  0
    0.5050   -1.7680   -0.8160 C   0  0  0  0  0  0  0  0  0  0  0  0
   -0.4460   -1.3350   -1.7770 C   0  0  0  0  0  0  0  0  0  0  0  0
    1.1240   -5.3910   -2.0500 C   0  0  0  0  0  0  0  0  0  0  0  0
    0.5820   -3.9590   -1.9230 C   0  0  0  0  0  0  0  0  0  0  0  0
    0.7850    0.3810    2.2650 C   0  0  0  0  0  0  0  0  0  0  0  0
    1.0030   -3.0840   -0.9230 C   0  0  0  0  0  0  0  0  0  0  0  0
   -0.1390    1.3950    2.9570 C   0  0  0  0  0  0  0  0  0  0  0  0
   -0.0840    2.7030    2.1660 C   0  0  0  0  0  0  0  0  0  0  0  0
   -0.6990    3.4820    0.0150 O   0  0  0  0  0  0  0  0  0  0  0  0
    1.4130    2.6720   -2.6600 C   0  0  0  0  0  0  0  0  0  0  0  0
    0.3900   -6.2560   -2.6100 O   0  0  0  0  0  0  0  0  0  0  0  0
   -0.8650   -2.2400   -2.7700 C   0  0  0  0  0  0  0  0  0  0  0  0
   -0.3640   -3.5380   -2.8470 C   0  0  0  0  0  0  0  0  0  0  0  0
    2.2710   -5.5370   -1.5360 O   0  5  0  0  0  0  0  0  0  0  0  0
    0.6160    3.7220   -2.4110 F   0  0  0  0  0  0  0  0  0  0  0  0
    1.9170    0.3280   -2.4960 C   0  0  0  0  0  0  0  0  0  0  0  0
   -1.5870    0.8660    3.0400 C   0  0  0  0  0  0  0  0  0  0  0  0
    0.3610    1.6450    4.3910 C   0  0  0  0  0  0  0  0  0  0  0  0
    2.6120    2.8950   -3.3330 C   0  0  0  0  0  0  0  0  0  0  0  0
    3.1220    0.5430   -3.1710 C   0  0  0  0  0  0  0  0  0  0  0  0
    3.4690    1.8280   -3.5910 C   0  0  0  0  0  0  0  0  0  0  0  0
   -0.9150    2.0110   -1.6510 H   0  0  0  0  0  0  0  0  0  0  0  0
   -1.8590    0.0880   -2.2920 H   0  0  0  0  0  0  0  0  0  0  0  0
    1.6390   -1.4740    0.8650 H   0  0  0  0  0  0  0  0  0  0  0  0
    1.8150    0.7120    2.3970 H   0  0  0  0  0  0  0  0  0  0  0  0
    0.6500   -0.5880    2.7460 H   0  0  0  0  0  0  0  0  0  0  0  0
    1.7350   -3.4250   -0.2060 H   0  0  0  0  0  0  0  0  0  0  0  0
   -0.8480    3.3750    2.5570 H   0  0  0  0  0  0  0  0  0  0  0  0
    0.9000    3.1500    2.3060 H   0  0  0  0  0  0  0  0  0  0  0  0
   -1.5980   -1.9180   -3.4950 H   0  0  0  0  0  0  0  0  0  0  0  0
   -0.7090   -4.2100   -3.6190 H   0  0  0  0  0  0  0  0  0  0  0  0
    1.6640   -0.6660   -2.1580 H   0  0  0  0  0  0  0  0  0  0  0  0
   -1.9640    0.6810    2.0340 H   0  0  0  0  0  0  0  0  0  0  0  0
   -2.2170    1.6060    3.5340 H   0  0  0  0  0  0  0  0  0  0  0  0
   -1.6020   -0.0630    3.6110 H   0  0  0  0  0  0  0  0  0  0  0  0
    1.3840    2.0200    4.3590 H   0  0  0  0  0  0  0  0  0  0  0  0
    0.3340    0.7120    4.9530 H   0  0  0  0  0  0  0  0  0  0  0  0
   -0.2800    2.3800    4.8760 H   0  0  0  0  0  0  0  0  0  0  0  0
    2.8760    3.8920   -3.6540 H   0  0  0  0  0  0  0  0  0  0  0  0
    3.7850   -0.2860   -3.3680 H   0  0  0  0  0  0  0  0  0  0  0  0
    4.3990    1.9940   -4.1140 H   0  0  0  0  0  0  0  0  0  0  0  0
  1  2  1  0  0  0  0
  1  3  2  0  0  0  0
  1  5  1  0  0  0  0
  2  4  1  0  0  0  0
  2  7  1  0  0  0  0
  2 29  1  0  0  0  0
  3  6  1  0  0  0  0
  3 12  1  0  0  0  0
  4  9  1  0  0  0  0
  4 30  1  0  0  0  0
  5 15  1  0  0  0  0
  5 16  2  0  0  0  0
  6  8  1  0  0  0  0
  6 31  1  0  0  0  0
  7 17  2  0  0  0  0
  7 23  1  0  0  0  0
  8  9  1  0  0  0  0
  8 13  2  0  0  0  0
  9 19  2  0  0  0  0
 10 11  1  0  0  0  0
 10 18  2  0  0  0  0
 10 21  1  0  0  0  0
 11 13  1  0  0  0  0
 11 20  2  0  0  0  0
 12 14  1  0  0  0  0
 12 32  1  0  0  0  0
 12 33  1  0  0  0  0
 13 34  1  0  0  0  0
 14 15  1  0  0  0  0
 14 24  1  0  0  0  0
 14 25  1  0  0  0  0
 15 35  1  0  0  0  0
 15 36  1  0  0  0  0
 17 22  1  0  0  0  0
 17 26  1  0  0  0  0
 19 20  1  0  0  0  0
 19 37  1  0  0  0  0
 20 38  1  0  0  0  0
 23 27  2  0  0  0  0
 23 39  1  0  0  0  0
 24 40  1  0  0  0  0
 24 41  1  0  0  0  0
 24 42  1  0  0  0  0
 25 43  1  0  0  0  0
 25 44  1  0  0  0  0
 25 45  1  0  0  0  0
 26 28  2  0  0  0  0
 26 46  1  0  0  0  0
 27 28  1  0  0  0  0
 27 47  1  0  0  0  0
 28 48  1  0  0  0  0
M  CHG  1  21  -1
M  END
>  <$CLUSTER>
979

>  <INDEX>
544491

$$$$
TimTec ST014103
  MOE2020           3D

 41 43  0  0  1  0  0  0  0  0999 V2000
   -0.0580   -0.0030    0.7110 C   0  0  0  0  0  0  0  0  0  0  0  0
   -1.7030    0.0420   -1.2110 C   0  0  0  0  0  0  0  0  0  0  0  0
   -1.0120    0.9490   -1.9420 C   0  0  0  0  0  0  0  0  0  0  0  0
    0.7540    0.8790    0.0960 C   0  0  0  0  0  0  0  0  0  0  0  0
    0.7110    1.1850   -1.6110 S   0  0  0  0  0  0  0  0  0  0  0  0
   -1.1410   -0.7640   -0.0460 C   0  0  3  0  0  0  0  0  0  0  0  0
   -3.1530   -0.1350   -1.4940 C   0  0  0  0  0  0  0  0  0  0  0  0
   -0.7170   -2.1600   -0.4070 C   0  0  0  0  0  0  0  0  0  0  0  0
    0.0500   -0.2440    2.1210 C   0  0  0  0  0  0  0  0  0  0  0  0
    0.1310   -0.4440    3.2610 N   0  0  0  0  0  0  0  0  0  0  0  0
   -1.1860   -3.1590    0.3980 O   0  0  0  0  0  0  0  0  0  0  0  0
    1.8080    1.6240    0.8040 C   0  0  0  0  0  0  0  0  0  0  0  0
   -1.5580    1.6710   -2.9760 N   0  0  0  0  0  0  0  0  0  0  0  0
    0.0770   -2.6930   -1.4030 C   0  0  0  0  0  0  0  0  0  0  0  0
   -3.9440    0.7680   -1.7290 O   0  0  0  0  0  0  0  0  0  0  0  0
   -0.6910   -4.3240   -0.0900 C   0  0  0  0  0  0  0  0  0  0  0  0
    0.0920   -4.0930   -1.1960 C   0  0  0  0  0  0  0  0  0  0  0  0
   -3.4910   -1.4450   -1.4560 O   0  0  0  0  0  0  0  0  0  0  0  0
    1.5330    2.8830    1.3560 C   0  0  0  0  0  0  0  0  0  0  0  0
    3.0900    1.0730    0.9540 C   0  0  0  0  0  0  0  0  0  0  0  0
   -4.8580   -1.7810   -1.7100 C   0  0  0  0  0  0  0  0  0  0  0  0
   -5.0220   -3.2840   -1.6170 C   0  0  0  0  0  0  0  0  0  0  0  0
    2.5280    3.5830    2.0400 C   0  0  0  0  0  0  0  0  0  0  0  0
    4.0810    1.7770    1.6390 C   0  0  0  0  0  0  0  0  0  0  0  0
    3.8000    3.0310    2.1810 C   0  0  0  0  0  0  0  0  0  0  0  0
   -1.9800   -0.8970    0.6370 H   0  0  0  0  0  0  0  0  0  0  0  0
   -2.5270    1.5390   -3.2280 H   0  0  0  0  0  0  0  0  0  0  0  0
   -0.9900    2.3340   -3.4840 H   0  0  0  0  0  0  0  0  0  0  0  0
    0.5860   -2.1490   -2.1850 H   0  0  0  0  0  0  0  0  0  0  0  0
   -0.8850   -5.2990    0.3320 H   0  0  0  0  0  0  0  0  0  0  0  0
    0.6130   -4.8310   -1.7880 H   0  0  0  0  0  0  0  0  0  0  0  0
    0.5480    3.3130    1.2520 H   0  0  0  0  0  0  0  0  0  0  0  0
    3.3100    0.1010    0.5380 H   0  0  0  0  0  0  0  0  0  0  0  0
   -5.1380   -1.4440   -2.7080 H   0  0  0  0  0  0  0  0  0  0  0  0
   -5.4970   -1.2970   -0.9710 H   0  0  0  0  0  0  0  0  0  0  0  0
   -4.3830   -3.7660   -2.3570 H   0  0  0  0  0  0  0  0  0  0  0  0
   -6.0620   -3.5490   -1.8080 H   0  0  0  0  0  0  0  0  0  0  0  0
   -4.7390   -3.6190   -0.6190 H   0  0  0  0  0  0  0  0  0  0  0  0
    2.3120    4.5540    2.4610 H   0  0  0  0  0  0  0  0  0  0  0  0
    5.0670    1.3500    1.7500 H   0  0  0  0  0  0  0  0  0  0  0  0
    4.5690    3.5750    2.7100 H   0  0  0  0  0  0  0  0  0  0  0  0
  1  4  2  0  0  0  0
  1  6  1  0  0  0  0
  1  9  1  0  0  0  0
  2  3  2  0  0  0  0
  2  6  1  0  0  0  0
  2  7  1  0  0  0  0
  3  5  1  0  0  0  0
  3 13  1  0  0  0  0
  4  5  1  0  0  0  0
  4 12  1  0  0  0  0
  6  8  1  0  0  0  0
  6 26  1  0  0  0  0
  7 15  2  0  0  0  0
  7 18  1  0  0  0  0
  8 11  1  0  0  0  0
  8 14  2  0  0  0  0
  9 10  3  0  0  0  0
 11 16  1  0  0  0  0
 12 19  2  0  0  0  0
 12 20  1  0  0  0  0
 13 27  1  0  0  0  0
 13 28  1  0  0  0  0
 14 17  1  0  0  0  0
 14 29  1  0  0  0  0
 16 17  2  0  0  0  0
 16 30  1  0  0  0  0
 17 31  1  0  0  0  0
 18 21  1  0  0  0  0
 19 23  1  0  0  0  0
 19 32  1  0  0  0  0
 20 24  2  0  0  0  0
 20 33  1  0  0  0  0
 21 22  1  0  0  0  0
 21 34  1  0  0  0  0
 21 35  1  0  0  0  0
 22 36  1  0  0  0  0
 22 37  1  0  0  0  0
 22 38  1  0  0  0  0
 23 25  2  0  0  0  0
 23 39  1  0  0  0  0
 24 25  1  0  0  0  0
 24 40  1  0  0  0  0
 25 41  1  0  0  0  0
M  END
>  <$CLUSTER>
980

>  <INDEX>
639918

$$$$
TimTec ST017903
  MOE2020           3D

 40 42  0  0  0  0  0  0  0  0999 V2000
    3.3700    0.1330   -1.2790 C   0  0  0  0  0  0  0  0  0  0  0  0
    3.4340    1.4520   -1.2760 N   0  0  0  0  0  0  0  0  0  0  0  0
    4.6570    1.7000   -1.7700 N   0  0  0  0  0  0  0  0  0  0  0  0
    2.1560   -0.6360   -0.8110 C   0  0  0  0  0  0  0  0  0  0  0  0
    4.5450   -0.4750   -1.7750 C   0  0  0  0  0  0  0  0  0  0  0  0
    5.3640    0.5810   -2.0850 C   0  0  0  0  0  0  0  0  0  0  0  0
   -0.0110   -0.2950    0.0950 N   0  0  0  0  0  0  0  0  0  0  0  0
   -2.3020    0.0950    0.7870 C   0  0  0  0  0  0  0  0  0  0  0  0
    1.1230    0.2810   -0.3580 N   0  0  0  0  0  0  0  0  0  0  0  0
    2.0980   -1.8370   -0.8050 O   0  0  0  0  0  0  0  0  0  0  0  0
   -3.3120    1.0460    0.9830 C   0  0  0  0  0  0  0  0  0  0  0  0
    5.1100    3.0750   -1.9240 C   0  0  0  0  0  0  0  0  0  0  0  0
   -0.9670    0.5540    0.2880 C   0  0  0  0  0  0  0  0  0  0  0  0
    5.6750    3.6420   -0.6340 C   0  0  0  0  0  0  0  0  0  0  0  0
    6.7050    4.6290    1.7720 C   0  0  0  0  0  0  0  0  0  0  0  0
    7.3640    5.2980    3.3660 Br  0  0  0  0  0  0  0  0  0  0  0  0
   -3.0840    2.3700    0.7240 O   0  0  0  0  0  0  0  0  0  0  0  0
    5.3390    4.7230    1.5070 C   0  0  0  0  0  0  0  0  0  0  0  0
    7.5550    4.0350    0.8400 C   0  0  0  0  0  0  0  0  0  0  0  0
    7.0410    3.5380   -0.3590 C   0  0  0  0  0  0  0  0  0  0  0  0
    4.8240    4.2260    0.3090 C   0  0  0  0  0  0  0  0  0  0  0  0
   -2.5400   -1.2440    1.0510 C   0  0  0  0  0  0  0  0  0  0  0  0
   -4.5650    0.6410    1.4470 C   0  0  0  0  0  0  0  0  0  0  0  0
   -3.7930   -1.6470    1.5150 C   0  0  0  0  0  0  0  0  0  0  0  0
   -4.8040   -0.7070    1.7130 C   0  0  0  0  0  0  0  0  0  0  0  0
    4.7510   -1.5290   -1.8850 H   0  0  0  0  0  0  0  0  0  0  0  0
    6.3620    0.5340   -2.4940 H   0  0  0  0  0  0  0  0  0  0  0  0
    1.2460    1.2830   -0.3810 H   0  0  0  0  0  0  0  0  0  0  0  0
    4.2660    3.6890   -2.2370 H   0  0  0  0  0  0  0  0  0  0  0  0
    5.8850    3.1050   -2.6900 H   0  0  0  0  0  0  0  0  0  0  0  0
   -0.8010    1.6020    0.0880 H   0  0  0  0  0  0  0  0  0  0  0  0
   -3.8320    2.9500    0.8860 H   0  0  0  0  0  0  0  0  0  0  0  0
    4.6790    5.1810    2.2290 H   0  0  0  0  0  0  0  0  0  0  0  0
    8.6120    3.9590    1.0460 H   0  0  0  0  0  0  0  0  0  0  0  0
    7.7010    3.0720   -1.0760 H   0  0  0  0  0  0  0  0  0  0  0  0
    3.7650    4.2930    0.1100 H   0  0  0  0  0  0  0  0  0  0  0  0
   -1.7580   -1.9740    0.8980 H   0  0  0  0  0  0  0  0  0  0  0  0
   -5.3470    1.3700    1.6000 H   0  0  0  0  0  0  0  0  0  0  0  0
   -3.9800   -2.6900    1.7210 H   0  0  0  0  0  0  0  0  0  0  0  0
   -5.7720   -1.0230    2.0720 H   0  0  0  0  0  0  0  0  0  0  0  0
  1  2  2  0  0  0  0
  1  4  1  0  0  0  0
  1  5  1  0  0  0  0
  2  3  1  0  0  0  0
  3  6  1  0  0  0  0
  3 12  1  0  0  0  0
  4  9  1  0  0  0  0
  4 10  2  0  0  0  0
  5  6  2  0  0  0  0
  5 26  1  0  0  0  0
  6 27  1  0  0  0  0
  7  9  1  0  0  0  0
  7 13  2  0  0  0  0
  8 11  2  0  0  0  0
  8 13  1  0  0  0  0
  8 22  1  0  0  0  0
  9 28  1  0  0  0  0
 11 17  1  0  0  0  0
 11 23  1  0  0  0  0
 12 14  1  0  0  0  0
 12 29  1  0  0  0  0
 12 30  1  0  0  0  0
 13 31  1  0  0  0  0
 14 20  2  0  0  0  0
 14 21  1  0  0  0  0
 15 16  1  0  0  0  0
 15 18  1  0  0  0  0
 15 19  2  0  0  0  0
 17 32  1  0  0  0  0
 18 21  2  0  0  0  0
 18 33  1  0  0  0  0
 19 20  1  0  0  0  0
 19 34  1  0  0  0  0
 20 35  1  0  0  0  0
 21 36  1  0  0  0  0
 22 24  2  0  0  0  0
 22 37  1  0  0  0  0
 23 25  2  0  0  0  0
 23 38  1  0  0  0  0
 24 25  1  0  0  0  0
 24 39  1  0  0  0  0
 25 40  1  0  0  0  0
M  END
>  <$CLUSTER>
981

>  <INDEX>
640514

$$$$
Chemical Block A3849/0163526
  MOE2020           3D

 18 19  0  0  0  0  0  0  0  0999 V2000
   -1.2900   -0.7090   -0.1510 C   0  0  0  0  0  0  0  0  0  0  0  0
    0.9690    0.2130    0.0730 C   0  0  0  0  0  0  0  0  0  0  0  0
   -2.6960   -0.4940   -0.1900 C   0  0  0  0  0  0  0  0  0  0  0  0
    1.9610    1.1520    0.2380 C   0  0  0  0  0  0  0  0  0  0  0  0
   -0.3840    0.3000    0.0200 N   0  0  0  0  0  0  0  0  0  0  0  0
    3.0000   -0.7470    0.0460 N   0  0  0  0  0  0  0  0  0  0  0  0
   -1.0590   -2.0190   -0.3050 N   0  0  0  0  0  0  0  0  0  0  0  0
   -3.3180   -1.6620   -0.3670 N   0  0  0  0  0  0  0  0  0  0  0  0
    1.6750   -0.9530   -0.0420 N   0  0  0  0  0  0  0  0  0  0  0  0
    3.1880    0.5560    0.2210 N   0  0  0  0  0  0  0  0  0  0  0  0
   -2.3070   -2.6060   -0.4390 O   0  0  0  0  0  0  0  0  0  0  0  0
    1.8320    2.5550    0.4100 C   0  0  0  0  0  0  0  0  0  0  0  0
    1.7220    3.7020    0.5500 N   0  0  0  0  0  0  0  0  0  0  0  0
   -3.2920    0.7100   -0.0650 N   0  0  0  0  0  0  0  0  0  0  0  0
   -0.7710    1.2280    0.1190 H   0  0  0  0  0  0  0  0  0  0  0  0
    1.2510   -1.8600   -0.1770 H   0  0  0  0  0  0  0  0  0  0  0  0
   -4.2990    0.7810   -0.1030 H   0  0  0  0  0  0  0  0  0  0  0  0
   -2.7310    1.5400    0.0660 H   0  0  0  0  0  0  0  0  0  0  0  0
  1  3  1  0  0  0  0
  1  5  1  0  0  0  0
  1  7  2  0  0  0  0
  2  4  2  0  0  0  0
  2  5  1  0  0  0  0
  2  9  1  0  0  0  0
  3  8  2  0  0  0  0
  3 14  1  0  0  0  0
  4 10  1  0  0  0  0
  4 12  1  0  0  0  0
  5 15  1  0  0  0  0
  6  9  1  0  0  0  0
  6 10  2  0  0  0  0
  7 11  1  0  0  0  0
  8 11  1  0  0  0  0
  9 16  1  0  0  0  0
 12 13  3  0  0  0  0
 14 17  1  0  0  0  0
 14 18  1  0  0  0  0
M  END
>  <$CLUSTER>
982

>  <INDEX>
121203

$$$$
Chem T&I ARAK0114714
  MOE2020           3D

 34 35  0  0  0  0  0  0  0  0999 V2000
    0.3620    0.6510   -0.0820 N   0  3  0  0  0  0  0  0  0  0  0  0
   -5.3650   -6.0350    0.5360 C   0  0  0  0  0  0  0  0  0  0  0  0
   -0.2920   -0.6470    0.0810 C   0  0  0  0  0  0  0  0  0  0  0  0
   -5.6800   -7.5140    0.7410 C   0  0  0  0  0  0  0  0  0  0  0  0
   -3.5260   -4.5110    0.5800 N   0  0  0  0  0  0  0  0  0  0  0  0
    1.6040    0.6970   -0.1070 O   0  5  0  0  0  0  0  0  0  0  0  0
   -0.3660    1.6520   -0.1880 O   0  0  0  0  0  0  0  0  0  0  0  0
   -3.9400   -5.7880    0.7310 N   0  0  0  0  0  0  0  0  0  0  0  0
   -6.8510   -7.9600    0.0830 C   0  0  0  0  0  0  0  0  0  0  0  0
   -6.2100   -5.2280    0.2560 O   0  0  0  0  0  0  0  0  0  0  0  0
   -1.7850   -0.6130    0.1000 C   0  0  0  0  0  0  0  0  0  0  0  0
    0.4780   -1.7400    0.1970 C   0  0  0  0  0  0  0  0  0  0  0  0
   -2.2390   -4.3560    0.5420 C   0  0  0  0  0  0  0  0  0  0  0  0
   -1.5950   -3.0500    0.3800 C   0  0  0  0  0  0  0  0  0  0  0  0
   -7.2470   -9.2910    0.2310 C   0  0  0  0  0  0  0  0  0  0  0  0
   -0.2000   -2.9900    0.3520 C   0  0  0  0  0  0  0  0  0  0  0  0
   -2.3550   -1.8860    0.2570 C   0  0  0  0  0  0  0  0  0  0  0  0
   -4.9630   -8.3620    1.5410 C   0  0  0  0  0  0  0  0  0  0  0  0
   -5.3650   -9.6910    1.6860 C   0  0  0  0  0  0  0  0  0  0  0  0
   -6.5030  -10.1560    1.0300 C   0  0  0  0  0  0  0  0  0  0  0  0
   -8.4720   -9.7880   -0.4670 C   0  0  0  0  0  0  0  0  0  0  0  0
   -3.2980   -6.5310    0.9660 H   0  0  0  0  0  0  0  0  0  0  0  0
   -7.4300   -7.2810   -0.5250 H   0  0  0  0  0  0  0  0  0  0  0  0
   -2.3640    0.2940    0.0030 H   0  0  0  0  0  0  0  0  0  0  0  0
    1.5560   -1.6790    0.1740 H   0  0  0  0  0  0  0  0  0  0  0  0
   -1.6120   -5.2310    0.6340 H   0  0  0  0  0  0  0  0  0  0  0  0
    0.3750   -3.8990    0.4490 H   0  0  0  0  0  0  0  0  0  0  0  0
   -3.4320   -1.9690    0.2840 H   0  0  0  0  0  0  0  0  0  0  0  0
   -4.0860   -8.0030    2.0600 H   0  0  0  0  0  0  0  0  0  0  0  0
   -4.7920  -10.3610    2.3090 H   0  0  0  0  0  0  0  0  0  0  0  0
   -6.8080  -11.1860    1.1410 H   0  0  0  0  0  0  0  0  0  0  0  0
   -8.9180   -8.9760   -1.0410 H   0  0  0  0  0  0  0  0  0  0  0  0
   -9.1890  -10.1490    0.2700 H   0  0  0  0  0  0  0  0  0  0  0  0
   -8.2020  -10.6020   -1.1400 H   0  0  0  0  0  0  0  0  0  0  0  0
  1  3  1  0  0  0  0
  1  6  1  0  0  0  0
  1  7  2  0  0  0  0
  2  4  1  0  0  0  0
  2  8  1  0  0  0  0
  2 10  2  0  0  0  0
  3 11  1  0  0  0  0
  3 12  2  0  0  0  0
  4  9  2  0  0  0  0
  4 18  1  0  0  0  0
  5  8  1  0  0  0  0
  5 13  2  0  0  0  0
  8 22  1  0  0  0  0
  9 15  1  0  0  0  0
  9 23  1  0  0  0  0
 11 17  2  0  0  0  0
 11 24  1  0  0  0  0
 12 16  1  0  0  0  0
 12 25  1  0  0  0  0
 13 14  1  0  0  0  0
 13 26  1  0  0  0  0
 14 16  2  0  0  0  0
 14 17  1  0  0  0  0
 15 20  2  0  0  0  0
 15 21  1  0  0  0  0
 16 27  1  0  0  0  0
 17 28  1  0  0  0  0
 18 19  2  0  0  0  0
 18 29  1  0  0  0  0
 19 20  1  0  0  0  0
 19 30  1  0  0  0  0
 20 31  1  0  0  0  0
 21 32  1  0  0  0  0
 21 33  1  0  0  0  0
 21 34  1  0  0  0  0
M  CHG  1   1   1
M  CHG  1   6  -1
M  END
>  <$CLUSTER>
983

>  <INDEX>
535779

$$$$
Chembridge 5468565
  MOE2020           3D

 29 31  0  0  0  0  0  0  0  0999 V2000
   -0.8220   -0.8050    0.6000 C   0  0  0  0  0  0  0  0  0  0  0  0
   -1.3110   -0.9980   -0.7780 C   0  0  0  0  0  0  0  0  0  0  0  0
   -1.8600   -2.3240   -1.1080 C   0  0  0  0  0  0  0  0  0  0  0  0
   -0.9890   -1.8090    1.4680 C   0  0  0  0  0  0  0  0  0  0  0  0
   -0.2050    0.4360    1.1030 C   0  0  0  0  0  0  0  0  0  0  0  0
   -1.5450   -3.0340    1.1620 O   0  0  0  0  0  0  0  0  0  0  0  0
   -1.9440   -3.2380   -0.1400 C   0  0  0  0  0  0  0  0  0  0  0  0
   -2.3520   -2.5860   -2.3970 C   0  0  0  0  0  0  0  0  0  0  0  0
   -1.2950   -0.1090   -1.6230 O   0  0  0  0  0  0  0  0  0  0  0  0
   -0.4870    0.8910    2.2110 O   0  0  0  0  0  0  0  0  0  0  0  0
    0.7880    1.1360    0.2630 C   0  0  0  0  0  0  0  0  0  0  0  0
   -2.4820   -4.5340   -0.3910 C   0  0  0  0  0  0  0  0  0  0  0  0
   -2.8820   -3.8470   -2.6750 C   0  0  0  0  0  0  0  0  0  0  0  0
   -2.9470   -4.8190   -1.6750 C   0  0  0  0  0  0  0  0  0  0  0  0
   -3.4480   -4.1880   -4.2460 Cl  0  0  0  0  0  0  0  0  0  0  0  0
    0.8380    2.5330    0.3180 C   0  0  0  0  0  0  0  0  0  0  0  0
    1.7070    0.4340   -0.5240 C   0  0  0  0  0  0  0  0  0  0  0  0
    2.6520    1.1330   -1.2770 C   0  0  0  0  0  0  0  0  0  0  0  0
    1.7840    3.2270   -0.4380 C   0  0  0  0  0  0  0  0  0  0  0  0
    2.6880    2.5270   -1.2370 C   0  0  0  0  0  0  0  0  0  0  0  0
   -0.6640   -1.6490    2.4850 H   0  0  0  0  0  0  0  0  0  0  0  0
   -2.3210   -1.8240   -3.1610 H   0  0  0  0  0  0  0  0  0  0  0  0
   -2.5280   -5.2760    0.3920 H   0  0  0  0  0  0  0  0  0  0  0  0
   -3.3580   -5.7930   -1.8960 H   0  0  0  0  0  0  0  0  0  0  0  0
    0.1450    3.0740    0.9450 H   0  0  0  0  0  0  0  0  0  0  0  0
    1.6850   -0.6450   -0.5490 H   0  0  0  0  0  0  0  0  0  0  0  0
    3.3570    0.5930   -1.8920 H   0  0  0  0  0  0  0  0  0  0  0  0
    1.8160    4.3060   -0.4040 H   0  0  0  0  0  0  0  0  0  0  0  0
    3.4170    3.0650   -1.8250 H   0  0  0  0  0  0  0  0  0  0  0  0
  1  2  1  0  0  0  0
  1  4  2  0  0  0  0
  1  5  1  0  0  0  0
  2  3  1  0  0  0  0
  2  9  2  0  0  0  0
  3  7  2  0  0  0  0
  3  8  1  0  0  0  0
  4  6  1  0  0  0  0
  4 21  1  0  0  0  0
  5 10  2  0  0  0  0
  5 11  1  0  0  0  0
  6  7  1  0  0  0  0
  7 12  1  0  0  0  0
  8 13  2  0  0  0  0
  8 22  1  0  0  0  0
 11 16  1  0  0  0  0
 11 17  2  0  0  0  0
 12 14  2  0  0  0  0
 12 23  1  0  0  0  0
 13 14  1  0  0  0  0
 13 15  1  0  0  0  0
 14 24  1  0  0  0  0
 16 19  2  0  0  0  0
 16 25  1  0  0  0  0
 17 18  1  0  0  0  0
 17 26  1  0  0  0  0
 18 20  2  0  0  0  0
 18 27  1  0  0  0  0
 19 20  1  0  0  0  0
 19 28  1  0  0  0  0
 20 29  1  0  0  0  0
M  END
>  <$CLUSTER>
984

>  <INDEX>
46695

$$$$
Chemical Block A2152/0090379
  MOE2020           3D

 52 55  0  0  1  0  0  0  0  0999 V2000
   -0.1060   -0.8100    0.7710 C   0  0  0  0  0  0  0  0  0  0  0  0
    0.4690   -0.9050   -1.4530 N   0  0  0  0  0  0  0  0  0  0  0  0
    1.5310   -1.4080   -0.6940 C   0  0  0  0  0  0  0  0  0  0  0  0
    1.1120   -1.3520    0.7250 C   0  0  0  0  0  0  0  0  0  0  0  0
   -0.6190   -0.4330   -0.5910 C   0  0  3  0  0  0  0  0  0  0  0  0
   -0.9440   -0.6560    1.9710 C   0  0  0  0  0  0  0  0  0  0  0  0
   -0.8920    1.0600   -0.6880 C   0  0  0  0  0  0  0  0  0  0  0  0
    0.4080   -0.8580   -2.8820 C   0  0  0  0  0  0  0  0  0  0  0  0
    0.1440    2.0050   -0.7460 C   0  0  0  0  0  0  0  0  0  0  0  0
    2.6100   -1.8700   -1.0250 O   0  0  0  0  0  0  0  0  0  0  0  0
   -0.1400    3.3710   -0.8110 C   0  0  0  0  0  0  0  0  0  0  0  0
   -2.2190    1.5190   -0.6810 C   0  0  0  0  0  0  0  0  0  0  0  0
   -2.1600   -0.8030    1.9130 O   0  0  0  0  0  0  0  0  0  0  0  0
   -1.4620    3.8100   -0.8130 C   0  0  0  0  0  0  0  0  0  0  0  0
   -0.3240   -0.2960    3.2570 C   0  0  0  0  0  0  0  0  0  0  0  0
    1.8590   -1.8620    1.7400 O   0  0  0  0  0  0  0  0  0  0  0  0
   -2.5020    2.8850   -0.7460 C   0  0  0  0  0  0  0  0  0  0  0  0
    1.5340   -1.1160   -3.6800 C   0  0  0  0  0  0  0  0  0  0  0  0
   -0.7960   -0.5540   -3.5430 C   0  0  0  0  0  0  0  0  0  0  0  0
    0.2600   -0.7620   -5.7070 C   0  0  0  0  0  0  0  0  0  0  0  0
    0.8280    4.3550   -0.8790 O   0  0  0  0  0  0  0  0  0  0  0  0
    1.4610   -1.0670   -5.0770 C   0  0  0  0  0  0  0  0  0  0  0  0
   -0.8690   -0.5060   -4.9390 C   0  0  0  0  0  0  0  0  0  0  0  0
    0.2780   -0.7360   -7.0380 F   0  0  0  0  0  0  0  0  0  0  0  0
   -1.6450    5.1740   -0.8760 O   0  0  0  0  0  0  0  0  0  0  0  0
    0.6700    0.6840    3.3290 C   0  0  0  0  0  0  0  0  0  0  0  0
   -0.7860   -0.9160    4.4210 C   0  0  0  0  0  0  0  0  0  0  0  0
    2.1890    3.9430   -0.8810 C   0  0  0  0  0  0  0  0  0  0  0  0
   -2.9830    5.6570   -0.8770 C   0  0  0  0  0  0  0  0  0  0  0  0
   -0.2310   -0.5740    5.6550 C   0  0  0  0  0  0  0  0  0  0  0  0
    1.2200    1.0220    4.5660 C   0  0  0  0  0  0  0  0  0  0  0  0
    0.7720    0.3920    5.7270 C   0  0  0  0  0  0  0  0  0  0  0  0
   -1.5810   -0.8680   -0.8620 H   0  0  0  0  0  0  0  0  0  0  0  0
    1.1720    1.6730   -0.7400 H   0  0  0  0  0  0  0  0  0  0  0  0
   -3.0300    0.8080   -0.6250 H   0  0  0  0  0  0  0  0  0  0  0  0
    1.4470   -1.8230    2.6060 H   0  0  0  0  0  0  0  0  0  0  0  0
   -3.5270    3.2250   -0.7440 H   0  0  0  0  0  0  0  0  0  0  0  0
    2.4750   -1.3570   -3.2070 H   0  0  0  0  0  0  0  0  0  0  0  0
   -1.6830   -0.3530   -2.9600 H   0  0  0  0  0  0  0  0  0  0  0  0
    2.3420   -1.2670   -5.6680 H   0  0  0  0  0  0  0  0  0  0  0  0
   -1.8060   -0.2690   -5.4210 H   0  0  0  0  0  0  0  0  0  0  0  0
    1.0110    1.1780    2.4310 H   0  0  0  0  0  0  0  0  0  0  0  0
   -1.5700   -1.6570    4.3660 H   0  0  0  0  0  0  0  0  0  0  0  0
    2.8340    4.8200   -0.9380 H   0  0  0  0  0  0  0  0  0  0  0  0
    2.3730    3.3000   -1.7420 H   0  0  0  0  0  0  0  0  0  0  0  0
    2.4030    3.3930    0.0350 H   0  0  0  0  0  0  0  0  0  0  0  0
   -2.9760    6.7460   -0.9300 H   0  0  0  0  0  0  0  0  0  0  0  0
   -3.4840    5.3410    0.0380 H   0  0  0  0  0  0  0  0  0  0  0  0
   -3.5140    5.2550   -1.7400 H   0  0  0  0  0  0  0  0  0  0  0  0
   -0.5790   -1.0580    6.5550 H   0  0  0  0  0  0  0  0  0  0  0  0
    1.9940    1.7730    4.6250 H   0  0  0  0  0  0  0  0  0  0  0  0
    1.2020    0.6530    6.6830 H   0  0  0  0  0  0  0  0  0  0  0  0
  1  4  2  0  0  0  0
  1  5  1  0  0  0  0
  1  6  1  0  0  0  0
  2  3  1  0  0  0  0
  2  5  1  0  0  0  0
  2  8  1  0  0  0  0
  3  4  1  0  0  0  0
  3 10  2  0  0  0  0
  4 16  1  0  0  0  0
  5  7  1  0  0  0  0
  5 33  1  0  0  0  0
  6 13  2  0  0  0  0
  6 15  1  0  0  0  0
  7  9  2  0  0  0  0
  7 12  1  0  0  0  0
  8 18  2  0  0  0  0
  8 19  1  0  0  0  0
  9 11  1  0  0  0  0
  9 34  1  0  0  0  0
 11 14  2  0  0  0  0
 11 21  1  0  0  0  0
 12 17  2  0  0  0  0
 12 35  1  0  0  0  0
 14 17  1  0  0  0  0
 14 25  1  0  0  0  0
 15 26  1  0  0  0  0
 15 27  2  0  0  0  0
 16 36  1  0  0  0  0
 17 37  1  0  0  0  0
 18 22  1  0  0  0  0
 18 38  1  0  0  0  0
 19 23  2  0  0  0  0
 19 39  1  0  0  0  0
 20 22  2  0  0  0  0
 20 23  1  0  0  0  0
 20 24  1  0  0  0  0
 21 28  1  0  0  0  0
 22 40  1  0  0  0  0
 23 41  1  0  0  0  0
 25 29  1  0  0  0  0
 26 31  2  0  0  0  0
 26 42  1  0  0  0  0
 27 30  1  0  0  0  0
 27 43  1  0  0  0  0
 28 44  1  0  0  0  0
 28 45  1  0  0  0  0
 28 46  1  0  0  0  0
 29 47  1  0  0  0  0
 29 48  1  0  0  0  0
 29 49  1  0  0  0  0
 30 32  2  0  0  0  0
 30 50  1  0  0  0  0
 31 32  1  0  0  0  0
 31 51  1  0  0  0  0
 32 52  1  0  0  0  0
M  END
>  <$CLUSTER>
985

>  <INDEX>
113478

$$$$
Cerep CER0136666
  MOE2020           3D

 54 57  0  0  0  0  0  0  0  0999 V2000
   -0.9820    0.2830   -1.0830 N   0  0  0  0  0  0  0  0  0  0  0  0
    0.9820   -0.2830    1.0830 N   0  0  0  0  0  0  0  0  0  0  0  0
   -1.4800    0.3030   -2.3320 C   0  0  0  0  0  0  0  0  0  0  0  0
    1.5370   -0.2020    2.2870 C   0  0  0  0  0  0  0  0  0  0  0  0
   -3.9380   -1.8860   -4.3950 C   0  0  0  0  0  0  0  0  0  0  0  0
   -6.8010   -4.6160   -6.4710 C   0  0  0  0  0  0  0  0  0  0  0  0
   -4.4370   -1.8450   -5.6740 N   0  0  0  0  0  0  0  0  0  0  0  0
    2.3930    0.8310    2.5300 N   0  0  0  0  0  0  0  0  0  0  0  0
   -0.0330    1.3000   -0.5920 C   0  0  0  0  0  0  0  0  0  0  0  0
   -1.2520   -0.6880   -0.0050 C   0  0  0  0  0  0  0  0  0  0  0  0
    1.2520    0.6880    0.0050 C   0  0  0  0  0  0  0  0  0  0  0  0
    0.0330   -1.3000    0.5920 C   0  0  0  0  0  0  0  0  0  0  0  0
   -5.3340   -2.6870   -6.3470 C   0  0  0  0  0  0  0  0  0  0  0  0
   -5.9120   -3.8130   -5.7500 C   0  0  0  0  0  0  0  0  0  0  0  0
   -7.1200   -4.3060   -7.7910 C   0  0  0  0  0  0  0  0  0  0  0  0
   -1.1990    1.1580   -3.1770 O   0  0  0  0  0  0  0  0  0  0  0  0
   -2.4410   -0.8020   -2.6940 C   0  0  0  0  0  0  0  0  0  0  0  0
   -4.2440   -2.7630   -3.5790 O   0  0  0  0  0  0  0  0  0  0  0  0
   -6.5510   -3.1900   -8.3950 C   0  0  0  0  0  0  0  0  0  0  0  0
   -2.9870   -0.7690   -4.0790 C   0  0  0  0  0  0  0  0  0  0  0  0
   -5.6630   -2.3850   -7.6770 C   0  0  0  0  0  0  0  0  0  0  0  0
   -7.5430   -5.8160   -6.0110 C   0  0  0  0  0  0  0  0  0  0  0  0
    1.2600   -1.1390    3.2920 C   0  0  0  0  0  0  0  0  0  0  0  0
   -7.9720   -6.4240   -7.3490 C   0  0  0  0  0  0  0  0  0  0  0  0
    2.9670    0.9230    3.7580 C   0  0  0  0  0  0  0  0  0  0  0  0
   -8.1010   -5.2630   -8.3390 C   0  0  0  0  0  0  0  0  0  0  0  0
    1.8620   -1.0220    4.5460 C   0  0  0  0  0  0  0  0  0  0  0  0
    2.7350    0.0300    4.7900 C   0  0  0  0  0  0  0  0  0  0  0  0
   -4.0980   -1.0710   -6.2280 H   0  0  0  0  0  0  0  0  0  0  0  0
   -0.5260    1.8920    0.1790 H   0  0  0  0  0  0  0  0  0  0  0  0
    0.2450    1.9470   -1.4240 H   0  0  0  0  0  0  0  0  0  0  0  0
   -1.8650   -1.4940   -0.4090 H   0  0  0  0  0  0  0  0  0  0  0  0
   -1.7970   -0.1810    0.7910 H   0  0  0  0  0  0  0  0  0  0  0  0
    1.7970    0.1810   -0.7910 H   0  0  0  0  0  0  0  0  0  0  0  0
    1.8650    1.4940    0.4090 H   0  0  0  0  0  0  0  0  0  0  0  0
   -0.2450   -1.9470    1.4240 H   0  0  0  0  0  0  0  0  0  0  0  0
    0.5260   -1.8920   -0.1790 H   0  0  0  0  0  0  0  0  0  0  0  0
   -5.6700   -4.0630   -4.7280 H   0  0  0  0  0  0  0  0  0  0  0  0
   -3.2830   -0.7510   -2.0030 H   0  0  0  0  0  0  0  0  0  0  0  0
   -1.9210   -1.7510   -2.5640 H   0  0  0  0  0  0  0  0  0  0  0  0
   -6.7950   -2.9460   -9.4180 H   0  0  0  0  0  0  0  0  0  0  0  0
   -3.5130    0.1760   -4.2160 H   0  0  0  0  0  0  0  0  0  0  0  0
   -2.1510   -0.8250   -4.7770 H   0  0  0  0  0  0  0  0  0  0  0  0
   -5.2240   -1.5200   -8.1520 H   0  0  0  0  0  0  0  0  0  0  0  0
   -8.4040   -5.5450   -5.4000 H   0  0  0  0  0  0  0  0  0  0  0  0
   -6.8990   -6.4940   -5.4510 H   0  0  0  0  0  0  0  0  0  0  0  0
    0.5790   -1.9540    3.0960 H   0  0  0  0  0  0  0  0  0  0  0  0
   -8.9300   -6.9330   -7.2400 H   0  0  0  0  0  0  0  0  0  0  0  0
   -7.2210   -7.1330   -7.6970 H   0  0  0  0  0  0  0  0  0  0  0  0
    3.6460    1.7430    3.9400 H   0  0  0  0  0  0  0  0  0  0  0  0
   -7.8370   -5.5700   -9.3510 H   0  0  0  0  0  0  0  0  0  0  0  0
   -9.1080   -4.8470   -8.3370 H   0  0  0  0  0  0  0  0  0  0  0  0
    1.6500   -1.7440    5.3210 H   0  0  0  0  0  0  0  0  0  0  0  0
    3.2160    0.1470    5.7500 H   0  0  0  0  0  0  0  0  0  0  0  0
  1  3  1  0  0  0  0
  1  9  1  0  0  0  0
  1 10  1  0  0  0  0
  2  4  1  0  0  0  0
  2 11  1  0  0  0  0
  2 12  1  0  0  0  0
  3 16  2  0  0  0  0
  3 17  1  0  0  0  0
  4  8  2  0  0  0  0
  4 23  1  0  0  0  0
  5  7  1  0  0  0  0
  5 18  2  0  0  0  0
  5 20  1  0  0  0  0
  6 14  2  0  0  0  0
  6 15  1  0  0  0  0
  6 22  1  0  0  0  0
  7 13  1  0  0  0  0
  7 29  1  0  0  0  0
  8 25  1  0  0  0  0
  9 11  1  0  0  0  0
  9 30  1  0  0  0  0
  9 31  1  0  0  0  0
 10 12  1  0  0  0  0
 10 32  1  0  0  0  0
 10 33  1  0  0  0  0
 11 34  1  0  0  0  0
 11 35  1  0  0  0  0
 12 36  1  0  0  0  0
 12 37  1  0  0  0  0
 13 14  1  0  0  0  0
 13 21  2  0  0  0  0
 14 38  1  0  0  0  0
 15 19  2  0  0  0  0
 15 26  1  0  0  0  0
 17 20  1  0  0  0  0
 17 39  1  0  0  0  0
 17 40  1  0  0  0  0
 19 21  1  0  0  0  0
 19 41  1  0  0  0  0
 20 42  1  0  0  0  0
 20 43  1  0  0  0  0
 21 44  1  0  0  0  0
 22 24  1  0  0  0  0
 22 45  1  0  0  0  0
 22 46  1  0  0  0  0
 23 27  2  0  0  0  0
 23 47  1  0  0  0  0
 24 26  1  0  0  0  0
 24 48  1  0  0  0  0
 24 49  1  0  0  0  0
 25 28  2  0  0  0  0
 25 50  1  0  0  0  0
 26 51  1  0  0  0  0
 26 52  1  0  0  0  0
 27 28  1  0  0  0  0
 27 53  1  0  0  0  0
 28 54  1  0  0  0  0
M  END
>  <$CLUSTER>
986

>  <INDEX>
189598

$$$$
Vitas-M Lab STK202466
  MOE2020           3D

 38 40  0  0  0  0  0  0  0  0999 V2000
   -4.7650   -2.6150    0.1040 C   0  0  0  0  0  0  0  0  0  0  0  0
   -4.3890   -1.9320    1.1420 N   0  0  0  0  0  0  0  0  0  0  0  0
   -5.8620   -3.9000    0.3630 S   0  0  0  0  0  0  0  0  0  0  0  0
   -5.0120   -2.4530    2.2590 C   0  0  0  0  0  0  0  0  0  0  0  0
   -5.8490   -3.5240    2.0350 C   0  0  0  0  0  0  0  0  0  0  0  0
   -0.8920   -0.1340   -0.1710 C   0  0  0  0  0  0  0  0  0  0  0  0
    0.2510   -0.5550    0.4870 N   0  0  0  0  0  0  0  0  0  0  0  0
   -1.8240   -1.2720   -0.4850 C   0  0  0  0  0  0  0  0  0  0  0  0
   -4.1660   -2.2430   -1.5640 S   0  0  0  0  0  0  0  0  0  0  0  0
   -1.1440    1.0230   -0.4960 O   0  0  0  0  0  0  0  0  0  0  0  0
   -3.0850   -0.8460   -1.2120 C   0  0  0  0  0  0  0  0  0  0  0  0
    1.3050    0.3550    0.8920 C   0  0  0  0  0  0  0  0  0  0  0  0
    2.3030    0.5830   -0.2280 C   0  0  0  0  0  0  0  0  0  0  0  0
   -4.8540   -1.9720    3.5940 C   0  0  0  0  0  0  0  0  0  0  0  0
   -6.5560   -4.1610    3.0870 C   0  0  0  0  0  0  0  0  0  0  0  0
    3.3830   -0.2900   -0.4020 C   0  0  0  0  0  0  0  0  0  0  0  0
    2.1360    1.6510   -1.1170 C   0  0  0  0  0  0  0  0  0  0  0  0
   -5.5460   -2.5930    4.6380 C   0  0  0  0  0  0  0  0  0  0  0  0
   -6.3860   -3.6730    4.3850 C   0  0  0  0  0  0  0  0  0  0  0  0
    3.0440    1.8490   -2.1590 C   0  0  0  0  0  0  0  0  0  0  0  0
    4.2900   -0.0900   -1.4440 C   0  0  0  0  0  0  0  0  0  0  0  0
    4.1210    0.9800   -2.3220 C   0  0  0  0  0  0  0  0  0  0  0  0
    0.3550   -1.5380    0.6940 H   0  0  0  0  0  0  0  0  0  0  0  0
   -2.1120   -1.7490    0.4520 H   0  0  0  0  0  0  0  0  0  0  0  0
   -1.2920   -1.9890   -1.1100 H   0  0  0  0  0  0  0  0  0  0  0  0
   -2.8060   -0.3720   -2.1530 H   0  0  0  0  0  0  0  0  0  0  0  0
   -3.6250   -0.1310   -0.5910 H   0  0  0  0  0  0  0  0  0  0  0  0
    1.8270   -0.0670    1.7510 H   0  0  0  0  0  0  0  0  0  0  0  0
    0.8600    1.3110    1.1700 H   0  0  0  0  0  0  0  0  0  0  0  0
   -4.2040   -1.1340    3.7960 H   0  0  0  0  0  0  0  0  0  0  0  0
   -7.2070   -5.0000    2.8900 H   0  0  0  0  0  0  0  0  0  0  0  0
    3.5150   -1.1220    0.2730 H   0  0  0  0  0  0  0  0  0  0  0  0
    1.3010    2.3250   -0.9960 H   0  0  0  0  0  0  0  0  0  0  0  0
   -5.4280   -2.2320    5.6490 H   0  0  0  0  0  0  0  0  0  0  0  0
   -6.9140   -4.1400    5.2030 H   0  0  0  0  0  0  0  0  0  0  0  0
    2.9110    2.6770   -2.8400 H   0  0  0  0  0  0  0  0  0  0  0  0
    5.1240   -0.7650   -1.5700 H   0  0  0  0  0  0  0  0  0  0  0  0
    4.8240    1.1350   -3.1270 H   0  0  0  0  0  0  0  0  0  0  0  0
  1  2  2  0  0  0  0
  1  3  1  0  0  0  0
  1  9  1  0  0  0  0
  2  4  1  0  0  0  0
  3  5  1  0  0  0  0
  4  5  2  0  0  0  0
  4 14  1  0  0  0  0
  5 15  1  0  0  0  0
  6  7  1  0  0  0  0
  6  8  1  0  0  0  0
  6 10  2  0  0  0  0
  7 12  1  0  0  0  0
  7 23  1  0  0  0  0
  8 11  1  0  0  0  0
  8 24  1  0  0  0  0
  8 25  1  0  0  0  0
  9 11  1  0  0  0  0
 11 26  1  0  0  0  0
 11 27  1  0  0  0  0
 12 13  1  0  0  0  0
 12 28  1  0  0  0  0
 12 29  1  0  0  0  0
 13 16  1  0  0  0  0
 13 17  2  0  0  0  0
 14 18  2  0  0  0  0
 14 30  1  0  0  0  0
 15 19  2  0  0  0  0
 15 31  1  0  0  0  0
 16 21  2  0  0  0  0
 16 32  1  0  0  0  0
 17 20  1  0  0  0  0
 17 33  1  0  0  0  0
 18 19  1  0  0  0  0
 18 34  1  0  0  0  0
 19 35  1  0  0  0  0
 20 22  2  0  0  0  0
 20 36  1  0  0  0  0
 21 22  1  0  0  0  0
 21 37  1  0  0  0  0
 22 38  1  0  0  0  0
M  END
>  <$CLUSTER>
987

>  <INDEX>
644834

$$$$
InterBioScreen STOCK3S-06831
  MOE2020           3D

 45 47  0  0  1  0  0  0  0  0999 V2000
    0.4940    0.1090    0.0900 N   0  0  0  0  0  0  0  0  0  0  0  0
    1.1960    0.8310    1.0350 C   0  0  0  0  0  0  0  0  0  0  0  0
    1.3400   -0.3380   -0.9100 C   0  0  0  0  0  0  0  0  0  0  0  0
    2.7630   -0.0410   -0.4780 C   0  0  3  0  0  0  0  0  0  0  0  0
    2.5890    1.0620    0.5380 C   0  0  0  0  0  0  0  0  0  0  0  0
    5.8350   -0.7050   -1.4570 C   0  0  0  0  0  0  0  0  0  0  0  0
    3.6310    0.3610   -1.5840 N   0  0  0  0  0  0  0  0  0  0  0  0
    5.0220    0.3520   -1.1390 N   0  0  0  0  0  0  0  0  0  0  0  0
   -0.9100   -0.1410    0.1400 C   0  0  0  0  0  0  0  0  0  0  0  0
    7.2280   -0.5160   -0.9110 C   0  0  0  0  0  0  0  0  0  0  0  0
    0.8200    1.2600    2.1220 O   0  0  0  0  0  0  0  0  0  0  0  0
    1.0520   -0.8920   -1.9690 O   0  0  0  0  0  0  0  0  0  0  0  0
    5.5210   -1.7090   -2.0970 O   0  0  0  0  0  0  0  0  0  0  0  0
    7.5410    0.2190    0.1990 C   0  0  0  0  0  0  0  0  0  0  0  0
   -1.5040   -1.1540   -0.6350 C   0  0  0  0  0  0  0  0  0  0  0  0
   -1.7600    0.6140    0.9690 C   0  0  0  0  0  0  0  0  0  0  0  0
    8.8610    0.3110    0.6450 C   0  0  0  0  0  0  0  0  0  0  0  0
   -3.6960   -0.6390    0.2440 C   0  0  0  0  0  0  0  0  0  0  0  0
   -2.8790   -1.4000   -0.5830 C   0  0  0  0  0  0  0  0  0  0  0  0
   -3.1360    0.3690    1.0200 C   0  0  0  0  0  0  0  0  0  0  0  0
    9.2430    1.2510    2.0140 Cl  0  0  0  0  0  0  0  0  0  0  0  0
   -5.0510   -0.7820    0.3820 O   0  0  0  0  0  0  0  0  0  0  0  0
    8.2600   -1.2370   -1.5950 C   0  0  0  0  0  0  0  0  0  0  0  0
    9.5780   -1.1400   -1.1440 C   0  0  0  0  0  0  0  0  0  0  0  0
    9.8780   -0.3650   -0.0270 C   0  0  0  0  0  0  0  0  0  0  0  0
   -5.6790   -1.8040   -0.3930 C   0  0  0  0  0  0  0  0  0  0  0  0
   -7.1640   -1.7780   -0.0820 C   0  0  0  0  0  0  0  0  0  0  0  0
    3.2640   -0.9220   -0.0770 H   0  0  0  0  0  0  0  0  0  0  0  0
    3.3150    0.9710    1.3460 H   0  0  0  0  0  0  0  0  0  0  0  0
    2.6830    2.0430    0.0730 H   0  0  0  0  0  0  0  0  0  0  0  0
    3.3810    1.2910   -1.8880 H   0  0  0  0  0  0  0  0  0  0  0  0
    5.3850    1.1240   -0.5980 H   0  0  0  0  0  0  0  0  0  0  0  0
    6.7590    0.7340    0.7370 H   0  0  0  0  0  0  0  0  0  0  0  0
   -0.8840   -1.7550   -1.2840 H   0  0  0  0  0  0  0  0  0  0  0  0
   -1.3410    1.4000    1.5790 H   0  0  0  0  0  0  0  0  0  0  0  0
   -3.3080   -2.1850   -1.1880 H   0  0  0  0  0  0  0  0  0  0  0  0
   -3.7650    0.9650    1.6640 H   0  0  0  0  0  0  0  0  0  0  0  0
    8.0210   -1.8500   -2.4510 H   0  0  0  0  0  0  0  0  0  0  0  0
   10.3660   -1.6670   -1.6620 H   0  0  0  0  0  0  0  0  0  0  0  0
   10.8980   -0.2880    0.3190 H   0  0  0  0  0  0  0  0  0  0  0  0
   -5.2630   -2.7770   -0.1310 H   0  0  0  0  0  0  0  0  0  0  0  0
   -5.5190   -1.6150   -1.4550 H   0  0  0  0  0  0  0  0  0  0  0  0
   -7.3160   -1.9680    0.9810 H   0  0  0  0  0  0  0  0  0  0  0  0
   -7.6710   -2.5470   -0.6650 H   0  0  0  0  0  0  0  0  0  0  0  0
   -7.5720   -0.8000   -0.3380 H   0  0  0  0  0  0  0  0  0  0  0  0
  1  2  1  0  0  0  0
  1  3  1  0  0  0  0
  1  9  1  0  0  0  0
  2  5  1  0  0  0  0
  2 11  2  0  0  0  0
  3  4  1  0  0  0  0
  3 12  2  0  0  0  0
  4  5  1  0  0  0  0
  4  7  1  0  0  0  0
  4 28  1  0  0  0  0
  5 29  1  0  0  0  0
  5 30  1  0  0  0  0
  6  8  1  0  0  0  0
  6 10  1  0  0  0  0
  6 13  2  0  0  0  0
  7  8  1  0  0  0  0
  7 31  1  0  0  0  0
  8 32  1  0  0  0  0
  9 15  2  0  0  0  0
  9 16  1  0  0  0  0
 10 14  2  0  0  0  0
 10 23  1  0  0  0  0
 14 17  1  0  0  0  0
 14 33  1  0  0  0  0
 15 19  1  0  0  0  0
 15 34  1  0  0  0  0
 16 20  2  0  0  0  0
 16 35  1  0  0  0  0
 17 21  1  0  0  0  0
 17 25  2  0  0  0  0
 18 19  2  0  0  0  0
 18 20  1  0  0  0  0
 18 22  1  0  0  0  0
 19 36  1  0  0  0  0
 20 37  1  0  0  0  0
 22 26  1  0  0  0  0
 23 24  2  0  0  0  0
 23 38  1  0  0  0  0
 24 25  1  0  0  0  0
 24 39  1  0  0  0  0
 25 40  1  0  0  0  0
 26 27  1  0  0  0  0
 26 41  1  0  0  0  0
 26 42  1  0  0  0  0
 27 43  1  0  0  0  0
 27 44  1  0  0  0  0
 27 45  1  0  0  0  0
M  END
>  <$CLUSTER>
988

>  <INDEX>
341490

$$$$
Chem T&I NSB 0073893
  MOE2020           3D

 44 45  0  0  0  0  0  0  0  0999 V2000
   -0.7780   -0.1430   -2.2720 C   0  0  0  0  0  0  0  0  0  0  0  0
    1.2940   -0.0370    3.3860 C   0  0  0  0  0  0  0  0  0  0  0  0
    1.1640    0.4980    2.0920 C   0  0  0  0  0  0  0  0  0  0  0  0
    0.1090    0.2820   -0.0900 N   0  0  0  0  0  0  0  0  0  0  0  0
    2.1520    0.6130    4.2920 C   0  0  0  0  0  0  0  0  0  0  0  0
   -2.7450   -1.2560   -6.4750 C   0  0  0  0  0  0  0  0  0  0  0  0
   -2.7140   -1.5520   -5.0740 C   0  0  0  0  0  0  0  0  0  0  0  0
   -0.7480   -0.4540   -0.8460 N   0  0  0  0  0  0  0  0  0  0  0  0
   -1.7990   -0.7440   -4.3540 O   0  0  0  0  0  0  0  0  0  0  0  0
   -3.6130   -1.9880   -7.3010 C   0  0  0  0  0  0  0  0  0  0  0  0
   -0.1320    0.6890   -2.8490 O   0  0  0  0  0  0  0  0  0  0  0  0
    0.2540   -0.1830    1.1150 C   0  0  0  0  0  0  0  0  0  0  0  0
    1.8600    1.6340    1.7100 C   0  0  0  0  0  0  0  0  0  0  0  0
   -1.7820   -1.0450   -2.9850 C   0  0  0  0  0  0  0  0  0  0  0  0
   -3.5280   -2.5360   -4.5680 C   0  0  0  0  0  0  0  0  0  0  0  0
    2.8520    1.7580    3.9050 C   0  0  0  0  0  0  0  0  0  0  0  0
   -4.4300   -2.9820   -6.7660 C   0  0  0  0  0  0  0  0  0  0  0  0
    2.7070    2.2690    2.6180 C   0  0  0  0  0  0  0  0  0  0  0  0
    0.5610   -1.1810    3.6900 O   0  0  0  0  0  0  0  0  0  0  0  0
   -4.3880   -3.2550   -5.4030 C   0  0  0  0  0  0  0  0  0  0  0  0
   -5.4730   -3.8520   -7.7920 Cl  0  0  0  0  0  0  0  0  0  0  0  0
    3.6560    2.2900    4.8940 O   0  0  0  0  0  0  0  0  0  0  0  0
   -1.8740   -0.1880   -7.0770 C   0  0  0  0  0  0  0  0  0  0  0  0
    0.7040   -1.7130    5.0130 C   0  0  0  0  0  0  0  0  0  0  0  0
    4.3950    3.4590    4.5590 C   0  0  0  0  0  0  0  0  0  0  0  0
    2.2700    0.2240    5.2930 H   0  0  0  0  0  0  0  0  0  0  0  0
   -1.3310   -1.1750   -0.4440 H   0  0  0  0  0  0  0  0  0  0  0  0
   -3.6480   -1.7790   -8.3600 H   0  0  0  0  0  0  0  0  0  0  0  0
   -0.2860   -1.0690    1.4150 H   0  0  0  0  0  0  0  0  0  0  0  0
    1.7470    2.0270    0.7100 H   0  0  0  0  0  0  0  0  0  0  0  0
   -2.7750   -0.8830   -2.5660 H   0  0  0  0  0  0  0  0  0  0  0  0
   -1.4950   -2.0870   -2.8470 H   0  0  0  0  0  0  0  0  0  0  0  0
   -3.5030   -2.7570   -3.5110 H   0  0  0  0  0  0  0  0  0  0  0  0
    3.2490    3.1550    2.3230 H   0  0  0  0  0  0  0  0  0  0  0  0
   -5.0220   -4.0250   -4.9880 H   0  0  0  0  0  0  0  0  0  0  0  0
   -1.2710    0.2720   -6.2950 H   0  0  0  0  0  0  0  0  0  0  0  0
   -2.5010    0.5700   -7.5460 H   0  0  0  0  0  0  0  0  0  0  0  0
   -1.2190   -0.6330   -7.8270 H   0  0  0  0  0  0  0  0  0  0  0  0
    0.0810   -2.6010    5.1170 H   0  0  0  0  0  0  0  0  0  0  0  0
    0.3930   -0.9640    5.7410 H   0  0  0  0  0  0  0  0  0  0  0  0
    1.7470   -1.9780    5.1870 H   0  0  0  0  0  0  0  0  0  0  0  0
    4.9850    3.7750    5.4200 H   0  0  0  0  0  0  0  0  0  0  0  0
    3.7070    4.2560    4.2780 H   0  0  0  0  0  0  0  0  0  0  0  0
    5.0600    3.2410    3.7230 H   0  0  0  0  0  0  0  0  0  0  0  0
  1  8  1  0  0  0  0
  1 11  2  0  0  0  0
  1 14  1  0  0  0  0
  2  3  2  0  0  0  0
  2  5  1  0  0  0  0
  2 19  1  0  0  0  0
  3 12  1  0  0  0  0
  3 13  1  0  0  0  0
  4  8  1  0  0  0  0
  4 12  2  0  0  0  0
  5 16  2  0  0  0  0
  5 26  1  0  0  0  0
  6  7  2  0  0  0  0
  6 10  1  0  0  0  0
  6 23  1  0  0  0  0
  7  9  1  0  0  0  0
  7 15  1  0  0  0  0
  8 27  1  0  0  0  0
  9 14  1  0  0  0  0
 10 17  2  0  0  0  0
 10 28  1  0  0  0  0
 12 29  1  0  0  0  0
 13 18  2  0  0  0  0
 13 30  1  0  0  0  0
 14 31  1  0  0  0  0
 14 32  1  0  0  0  0
 15 20  2  0  0  0  0
 15 33  1  0  0  0  0
 16 18  1  0  0  0  0
 16 22  1  0  0  0  0
 17 20  1  0  0  0  0
 17 21  1  0  0  0  0
 18 34  1  0  0  0  0
 19 24  1  0  0  0  0
 20 35  1  0  0  0  0
 22 25  1  0  0  0  0
 23 36  1  0  0  0  0
 23 37  1  0  0  0  0
 23 38  1  0  0  0  0
 24 39  1  0  0  0  0
 24 40  1  0  0  0  0
 24 41  1  0  0  0  0
 25 42  1  0  0  0  0
 25 43  1  0  0  0  0
 25 44  1  0  0  0  0
M  END
>  <$CLUSTER>
989

>  <INDEX>
574929

$$$$
TimTec TRE0007100
  MOE2020           3D

 43 44  0  0  0  0  0  0  0  0999 V2000
    0.6150    0.1680   -1.6400 C   0  0  0  0  0  0  0  0  0  0  0  0
    0.5660   -1.6590    0.1370 C   0  0  0  0  0  0  0  0  0  0  0  0
    0.5110   -0.1530   -0.1430 C   0  0  0  0  0  0  0  0  0  0  0  0
    0.6550   -0.8070   -2.5730 C   0  0  0  0  0  0  0  0  0  0  0  0
    0.6090   -2.5660   -0.8630 C   0  0  0  0  0  0  0  0  0  0  0  0
    0.6310   -2.1350   -2.1790 N   0  0  0  0  0  0  0  0  0  0  0  0
    0.5260    1.9360    2.0070 N   0  3  0  0  0  0  0  0  0  0  0  0
   -0.7460    0.4740    0.4670 C   0  0  0  0  0  0  0  0  0  0  0  0
   -0.7230    1.4520    1.4750 C   0  0  0  0  0  0  0  0  0  0  0  0
    0.5560   -2.0980    1.5410 C   0  0  0  0  0  0  0  0  0  0  0  0
    0.6540    1.5830   -2.0390 C   0  0  0  0  0  0  0  0  0  0  0  0
    1.0300    2.9170    1.4480 O   0  5  0  0  0  0  0  0  0  0  0  0
    0.9830    1.3400    2.9900 O   0  0  0  0  0  0  0  0  0  0  0  0
   -0.3000   -2.8040    2.0520 O   0  0  0  0  0  0  0  0  0  0  0  0
   -0.1700    2.1380   -2.7490 O   0  0  0  0  0  0  0  0  0  0  0  0
    1.7410    2.1800   -1.4980 O   0  0  0  0  0  0  0  0  0  0  0  0
    1.6380   -1.6020    2.1830 O   0  0  0  0  0  0  0  0  0  0  0  0
    0.7640   -0.5850   -4.0580 C   0  0  0  0  0  0  0  0  0  0  0  0
    0.6720   -4.0590   -0.6810 C   0  0  0  0  0  0  0  0  0  0  0  0
   -2.0170    0.0680    0.0140 C   0  0  0  0  0  0  0  0  0  0  0  0
   -1.8850    2.0110    2.0180 C   0  0  0  0  0  0  0  0  0  0  0  0
    1.7690   -1.9450    3.5730 C   0  0  0  0  0  0  0  0  0  0  0  0
    1.9200    3.5750   -1.7980 C   0  0  0  0  0  0  0  0  0  0  0  0
   -3.1890    0.6160    0.5460 C   0  0  0  0  0  0  0  0  0  0  0  0
   -3.1220    1.5850    1.5460 C   0  0  0  0  0  0  0  0  0  0  0  0
    1.3840    0.2900    0.3370 H   0  0  0  0  0  0  0  0  0  0  0  0
    0.6290   -2.8390   -2.9030 H   0  0  0  0  0  0  0  0  0  0  0  0
    0.7750   -1.5480   -4.5690 H   0  0  0  0  0  0  0  0  0  0  0  0
    1.6860   -0.0460   -4.2780 H   0  0  0  0  0  0  0  0  0  0  0  0
   -0.0900   -0.0010   -4.4020 H   0  0  0  0  0  0  0  0  0  0  0  0
    0.6970   -4.5430   -1.6570 H   0  0  0  0  0  0  0  0  0  0  0  0
   -0.2070   -4.3950   -0.1310 H   0  0  0  0  0  0  0  0  0  0  0  0
    1.5720   -4.3190   -0.1230 H   0  0  0  0  0  0  0  0  0  0  0  0
   -2.0880   -0.6820   -0.7600 H   0  0  0  0  0  0  0  0  0  0  0  0
   -1.8220    2.7620    2.7920 H   0  0  0  0  0  0  0  0  0  0  0  0
    2.6730   -1.4890    3.9760 H   0  0  0  0  0  0  0  0  0  0  0  0
    1.8310   -3.0280    3.6760 H   0  0  0  0  0  0  0  0  0  0  0  0
    0.9020   -1.5770    4.1210 H   0  0  0  0  0  0  0  0  0  0  0  0
    2.8230    3.9390   -1.3090 H   0  0  0  0  0  0  0  0  0  0  0  0
    1.0590    4.1380   -1.4370 H   0  0  0  0  0  0  0  0  0  0  0  0
    2.0130    3.7060   -2.8760 H   0  0  0  0  0  0  0  0  0  0  0  0
   -4.1500    0.2870    0.1800 H   0  0  0  0  0  0  0  0  0  0  0  0
   -4.0300    2.0050    1.9540 H   0  0  0  0  0  0  0  0  0  0  0  0
  1  3  1  0  0  0  0
  1  4  2  0  0  0  0
  1 11  1  0  0  0  0
  2  3  1  0  0  0  0
  2  5  2  0  0  0  0
  2 10  1  0  0  0  0
  3  8  1  0  0  0  0
  3 26  1  0  0  0  0
  4  6  1  0  0  0  0
  4 18  1  0  0  0  0
  5  6  1  0  0  0  0
  5 19  1  0  0  0  0
  6 27  1  0  0  0  0
  7  9  1  0  0  0  0
  7 12  1  0  0  0  0
  7 13  2  0  0  0  0
  8  9  2  0  0  0  0
  8 20  1  0  0  0  0
  9 21  1  0  0  0  0
 10 14  2  0  0  0  0
 10 17  1  0  0  0  0
 11 15  2  0  0  0  0
 11 16  1  0  0  0  0
 16 23  1  0  0  0  0
 17 22  1  0  0  0  0
 18 28  1  0  0  0  0
 18 29  1  0  0  0  0
 18 30  1  0  0  0  0
 19 31  1  0  0  0  0
 19 32  1  0  0  0  0
 19 33  1  0  0  0  0
 20 24  2  0  0  0  0
 20 34  1  0  0  0  0
 21 25  2  0  0  0  0
 21 35  1  0  0  0  0
 22 36  1  0  0  0  0
 22 37  1  0  0  0  0
 22 38  1  0  0  0  0
 23 39  1  0  0  0  0
 23 40  1  0  0  0  0
 23 41  1  0  0  0  0
 24 25  1  0  0  0  0
 24 42  1  0  0  0  0
 25 43  1  0  0  0  0
M  CHG  1   7   1
M  CHG  1  12  -1
M  END
>  <$CLUSTER>
990

>  <INDEX>
646584

$$$$
Chemical Block A1216/0056060
  MOE2020           3D

 45 47  0  0  0  0  0  0  0  0999 V2000
   -1.5930   -0.6160    0.7040 C   0  0  0  0  0  0  0  0  0  0  0  0
   -2.2140    0.4310    1.4780 N   0  0  0  0  0  0  0  0  0  0  0  0
   -1.3280   -1.7080    1.6100 N   0  0  0  0  0  0  0  0  0  0  0  0
   -0.3240   -0.1330    0.0180 C   0  0  0  0  0  0  0  0  0  0  0  0
    0.7680    0.3640    0.7570 C   0  0  0  0  0  0  0  0  0  0  0  0
   -0.2120   -0.1730   -1.3860 C   0  0  0  0  0  0  0  0  0  0  0  0
    2.0210    0.7590   -1.2740 C   0  0  0  0  0  0  0  0  0  0  0  0
    1.9300    0.8070    0.1180 C   0  0  0  0  0  0  0  0  0  0  0  0
    0.9510    0.2700   -2.0250 C   0  0  0  0  0  0  0  0  0  0  0  0
    3.4410    1.2990   -2.0410 Cl  0  0  0  0  0  0  0  0  0  0  0  0
   -3.6160    0.1310    1.8830 C   0  0  0  0  0  0  0  0  0  0  0  0
   -2.5500   -2.4420    2.0420 C   0  0  0  0  0  0  0  0  0  0  0  0
   -1.4740    0.9440    2.6420 C   0  0  0  0  0  0  0  0  0  0  0  0
   -0.4930   -1.4240    2.7880 C   0  0  0  0  0  0  0  0  0  0  0  0
   -2.2940   -3.6580    2.8860 C   0  0  0  0  0  0  0  0  0  0  0  0
   -2.0940    2.0810    3.3610 C   0  0  0  0  0  0  0  0  0  0  0  0
   -0.1610   -2.5830    3.6480 C   0  0  0  0  0  0  0  0  0  0  0  0
   -4.3280    1.2510    2.5820 C   0  0  0  0  0  0  0  0  0  0  0  0
   -1.4220   -3.3180    4.0880 C   0  0  0  0  0  0  0  0  0  0  0  0
   -3.5230    1.7540    3.7760 C   0  0  0  0  0  0  0  0  0  0  0  0
   -2.2550   -0.9390   -0.1000 H   0  0  0  0  0  0  0  0  0  0  0  0
    0.7060    0.4030    1.8350 H   0  0  0  0  0  0  0  0  0  0  0  0
   -1.0340   -0.5500   -1.9760 H   0  0  0  0  0  0  0  0  0  0  0  0
    2.7560    1.1860    0.7010 H   0  0  0  0  0  0  0  0  0  0  0  0
    1.0210    0.2340   -3.1020 H   0  0  0  0  0  0  0  0  0  0  0  0
   -3.5980   -0.7280    2.5530 H   0  0  0  0  0  0  0  0  0  0  0  0
   -4.1810   -0.1200    0.9850 H   0  0  0  0  0  0  0  0  0  0  0  0
   -3.0890   -2.7580    1.1490 H   0  0  0  0  0  0  0  0  0  0  0  0
   -3.1710   -1.7560    2.6170 H   0  0  0  0  0  0  0  0  0  0  0  0
   -0.4910    1.2650    2.2960 H   0  0  0  0  0  0  0  0  0  0  0  0
   -1.3600    0.1240    3.3510 H   0  0  0  0  0  0  0  0  0  0  0  0
   -1.0210   -0.6950    3.4020 H   0  0  0  0  0  0  0  0  0  0  0  0
    0.4440   -0.9920    2.4360 H   0  0  0  0  0  0  0  0  0  0  0  0
   -1.7890   -4.4110    2.2810 H   0  0  0  0  0  0  0  0  0  0  0  0
   -3.2470   -4.0540    3.2380 H   0  0  0  0  0  0  0  0  0  0  0  0
   -2.1040    2.9530    2.7070 H   0  0  0  0  0  0  0  0  0  0  0  0
   -1.5060    2.3020    4.2520 H   0  0  0  0  0  0  0  0  0  0  0  0
    0.3720   -2.2300    4.5310 H   0  0  0  0  0  0  0  0  0  0  0  0
    0.4750   -3.2700    3.0900 H   0  0  0  0  0  0  0  0  0  0  0  0
   -5.2970    0.8940    2.9310 H   0  0  0  0  0  0  0  0  0  0  0  0
   -4.4750    2.0720    1.8800 H   0  0  0  0  0  0  0  0  0  0  0  0
   -1.1400   -4.2390    4.5970 H   0  0  0  0  0  0  0  0  0  0  0  0
   -1.9860   -2.6830    4.7710 H   0  0  0  0  0  0  0  0  0  0  0  0
   -3.9950    2.6530    4.1730 H   0  0  0  0  0  0  0  0  0  0  0  0
   -3.5050    0.9830    4.5460 H   0  0  0  0  0  0  0  0  0  0  0  0
  1  2  1  0  0  0  0
  1  3  1  0  0  0  0
  1  4  1  0  0  0  0
  1 21  1  0  0  0  0
  2 11  1  0  0  0  0
  2 13  1  0  0  0  0
  3 12  1  0  0  0  0
  3 14  1  0  0  0  0
  4  5  2  0  0  0  0
  4  6  1  0  0  0  0
  5  8  1  0  0  0  0
  5 22  1  0  0  0  0
  6  9  2  0  0  0  0
  6 23  1  0  0  0  0
  7  8  2  0  0  0  0
  7  9  1  0  0  0  0
  7 10  1  0  0  0  0
  8 24  1  0  0  0  0
  9 25  1  0  0  0  0
 11 18  1  0  0  0  0
 11 26  1  0  0  0  0
 11 27  1  0  0  0  0
 12 15  1  0  0  0  0
 12 28  1  0  0  0  0
 12 29  1  0  0  0  0
 13 16  1  0  0  0  0
 13 30  1  0  0  0  0
 13 31  1  0  0  0  0
 14 17  1  0  0  0  0
 14 32  1  0  0  0  0
 14 33  1  0  0  0  0
 15 19  1  0  0  0  0
 15 34  1  0  0  0  0
 15 35  1  0  0  0  0
 16 20  1  0  0  0  0
 16 36  1  0  0  0  0
 16 37  1  0  0  0  0
 17 19  1  0  0  0  0
 17 38  1  0  0  0  0
 17 39  1  0  0  0  0
 18 20  1  0  0  0  0
 18 40  1  0  0  0  0
 18 41  1  0  0  0  0
 19 42  1  0  0  0  0
 19 43  1  0  0  0  0
 20 44  1  0  0  0  0
 20 45  1  0  0  0  0
M  END
>  <$CLUSTER>
991

>  <INDEX>
113005

$$$$
Chemdiv 0091-0129
  MOE2020           3D

 30 31  0  0  0  0  0  0  0  0999 V2000
   -2.7030    1.1890   -2.3160 C   0  0  0  0  0  0  0  0  0  0  0  0
   -1.6500    0.6240   -1.4220 C   0  0  0  0  0  0  0  0  0  0  0  0
   -1.1570    1.3790   -0.3600 C   0  0  0  0  0  0  0  0  0  0  0  0
   -3.9050    1.6930   -1.7900 C   0  0  0  0  0  0  0  0  0  0  0  0
   -1.1660   -0.6630   -1.6410 C   0  0  0  0  0  0  0  0  0  0  0  0
   -2.5170    1.2330   -3.7090 C   0  0  0  0  0  0  0  0  0  0  0  0
   -4.6840    2.2560   -4.0060 C   0  0  0  0  0  0  0  0  0  0  0  0
    0.3280   -0.4380    0.2620 C   0  0  0  0  0  0  0  0  0  0  0  0
    1.5680   -1.1850    1.3140 S   0  0  0  0  0  0  0  0  0  0  0  0
   -5.9010    2.9430   -5.1380 S   0  0  0  0  0  0  0  0  0  0  0  0
   -0.1850   -1.1950   -0.8010 C   0  0  0  0  0  0  0  0  0  0  0  0
   -0.1750    0.8500    0.4820 C   0  0  0  0  0  0  0  0  0  0  0  0
   -3.4980    1.7640   -4.5450 C   0  0  0  0  0  0  0  0  0  0  0  0
   -4.8880    2.2220   -2.6290 C   0  0  0  0  0  0  0  0  0  0  0  0
    2.6960    0.2110    1.5770 C   0  0  0  0  0  0  0  0  0  0  0  0
   -7.4460    2.3030   -4.4350 C   0  0  0  0  0  0  0  0  0  0  0  0
   -1.5350    2.3760   -0.1870 H   0  0  0  0  0  0  0  0  0  0  0  0
   -4.0710    1.6710   -0.7230 H   0  0  0  0  0  0  0  0  0  0  0  0
   -1.5500   -1.2510   -2.4620 H   0  0  0  0  0  0  0  0  0  0  0  0
   -1.6020    0.8500   -4.1370 H   0  0  0  0  0  0  0  0  0  0  0  0
    0.1810   -2.1970   -0.9710 H   0  0  0  0  0  0  0  0  0  0  0  0
    0.1980    1.4380    1.3070 H   0  0  0  0  0  0  0  0  0  0  0  0
   -3.3380    1.7940   -5.6130 H   0  0  0  0  0  0  0  0  0  0  0  0
   -5.8070    2.6050   -2.2100 H   0  0  0  0  0  0  0  0  0  0  0  0
    3.5210   -0.1040    2.2160 H   0  0  0  0  0  0  0  0  0  0  0  0
    2.1570    1.0280    2.0560 H   0  0  0  0  0  0  0  0  0  0  0  0
    3.0880    0.5470    0.6170 H   0  0  0  0  0  0  0  0  0  0  0  0
   -8.2880    2.6480   -5.0340 H   0  0  0  0  0  0  0  0  0  0  0  0
   -7.5560    2.6630   -3.4120 H   0  0  0  0  0  0  0  0  0  0  0  0
   -7.4220    1.2130   -4.4360 H   0  0  0  0  0  0  0  0  0  0  0  0
  1  2  1  0  0  0  0
  1  4  1  0  0  0  0
  1  6  2  0  0  0  0
  2  3  1  0  0  0  0
  2  5  2  0  0  0  0
  3 12  2  0  0  0  0
  3 17  1  0  0  0  0
  4 14  2  0  0  0  0
  4 18  1  0  0  0  0
  5 11  1  0  0  0  0
  5 19  1  0  0  0  0
  6 13  1  0  0  0  0
  6 20  1  0  0  0  0
  7 10  1  0  0  0  0
  7 13  2  0  0  0  0
  7 14  1  0  0  0  0
  8  9  1  0  0  0  0
  8 11  2  0  0  0  0
  8 12  1  0  0  0  0
  9 15  1  0  0  0  0
 10 16  1  0  0  0  0
 11 21  1  0  0  0  0
 12 22  1  0  0  0  0
 13 23  1  0  0  0  0
 14 24  1  0  0  0  0
 15 25  1  0  0  0  0
 15 26  1  0  0  0  0
 15 27  1  0  0  0  0
 16 28  1  0  0  0  0
 16 29  1  0  0  0  0
 16 30  1  0  0  0  0
M  END
>  <$CLUSTER>
992

>  <INDEX>
52

$$$$
Chem T&I UZI/4030346
  MOE2020           3D

 45 46  0  0  0  0  0  0  0  0999 V2000
    3.2390   -1.6610   -0.9400 C   0  0  0  0  0  0  0  0  0  0  0  0
    1.7330   -1.6830   -0.8700 C   0  0  0  0  0  0  0  0  0  0  0  0
    1.2410   -0.5140   -0.3030 N   0  0  0  0  0  0  0  0  0  0  0  0
    3.8390   -2.7580   -1.4780 C   0  0  0  0  0  0  0  0  0  0  0  0
    4.0610   -0.5110   -0.4520 C   0  0  0  0  0  0  0  0  0  0  0  0
   -0.1120   -0.1600   -0.0680 C   0  0  0  0  0  0  0  0  0  0  0  0
    4.6160    0.3380   -0.0890 N   0  0  0  0  0  0  0  0  0  0  0  0
   -0.3620    1.0970    0.5270 C   0  0  0  0  0  0  0  0  0  0  0  0
   -1.6800    1.4960    0.7810 C   0  0  0  0  0  0  0  0  0  0  0  0
    1.0990   -2.6480   -1.2820 O   0  0  0  0  0  0  0  0  0  0  0  0
    3.1750   -4.0690   -1.9340 C   0  0  0  0  0  0  0  0  0  0  0  0
    5.3790   -2.8950   -1.7310 C   0  0  0  0  0  0  0  0  0  0  0  0
   -1.1920   -0.9880   -0.3950 C   0  0  0  0  0  0  0  0  0  0  0  0
   -2.7450    0.6590    0.4490 C   0  0  0  0  0  0  0  0  0  0  0  0
   -2.5010   -0.5780   -0.1370 C   0  0  0  0  0  0  0  0  0  0  0  0
    0.7480    1.8540    0.8190 O   0  0  0  0  0  0  0  0  0  0  0  0
    3.7560   -5.2920   -1.2150 C   0  0  0  0  0  0  0  0  0  0  0  0
    5.9710   -4.0970   -0.9940 C   0  0  0  0  0  0  0  0  0  0  0  0
    5.2760   -5.4040   -1.4010 C   0  0  0  0  0  0  0  0  0  0  0  0
   -4.0750    0.9480    0.6520 O   0  0  0  0  0  0  0  0  0  0  0  0
    0.5330    3.1250    1.4190 C   0  0  0  0  0  0  0  0  0  0  0  0
   -4.3790    2.2030    1.2490 C   0  0  0  0  0  0  0  0  0  0  0  0
    5.8340   -6.5850   -0.6090 C   0  0  0  0  0  0  0  0  0  0  0  0
    1.9320    0.1680   -0.0240 H   0  0  0  0  0  0  0  0  0  0  0  0
   -1.8730    2.4560    1.2360 H   0  0  0  0  0  0  0  0  0  0  0  0
    2.1070   -4.0130   -1.7240 H   0  0  0  0  0  0  0  0  0  0  0  0
    3.3290   -4.1860   -3.0070 H   0  0  0  0  0  0  0  0  0  0  0  0
    5.5510   -3.0170   -2.8000 H   0  0  0  0  0  0  0  0  0  0  0  0
    5.8760   -1.9890   -1.3840 H   0  0  0  0  0  0  0  0  0  0  0  0
   -1.0110   -1.9510   -0.8500 H   0  0  0  0  0  0  0  0  0  0  0  0
   -3.3280   -1.2240   -0.3940 H   0  0  0  0  0  0  0  0  0  0  0  0
    3.2860   -6.1910   -1.6150 H   0  0  0  0  0  0  0  0  0  0  0  0
    3.5370   -5.2100   -0.1500 H   0  0  0  0  0  0  0  0  0  0  0  0
    5.8490   -3.9500    0.0790 H   0  0  0  0  0  0  0  0  0  0  0  0
    7.0320   -4.1710   -1.2320 H   0  0  0  0  0  0  0  0  0  0  0  0
    5.4770   -5.5810   -2.4580 H   0  0  0  0  0  0  0  0  0  0  0  0
    1.4930    3.6110    1.5940 H   0  0  0  0  0  0  0  0  0  0  0  0
    0.0130    2.9950    2.3680 H   0  0  0  0  0  0  0  0  0  0  0  0
   -0.0720    3.7430    0.7550 H   0  0  0  0  0  0  0  0  0  0  0  0
   -5.4590    2.3040    1.3520 H   0  0  0  0  0  0  0  0  0  0  0  0
   -3.9970    3.0070    0.6200 H   0  0  0  0  0  0  0  0  0  0  0  0
   -3.9130    2.2600    2.2330 H   0  0  0  0  0  0  0  0  0  0  0  0
    5.6450   -6.4320    0.4530 H   0  0  0  0  0  0  0  0  0  0  0  0
    6.9080   -6.6620   -0.7800 H   0  0  0  0  0  0  0  0  0  0  0  0
    5.3470   -7.5040   -0.9360 H   0  0  0  0  0  0  0  0  0  0  0  0
  1  2  1  0  0  0  0
  1  4  2  0  0  0  0
  1  5  1  0  0  0  0
  2  3  1  0  0  0  0
  2 10  2  0  0  0  0
  3  6  1  0  0  0  0
  3 24  1  0  0  0  0
  4 11  1  0  0  0  0
  4 12  1  0  0  0  0
  5  7  3  0  0  0  0
  6  8  2  0  0  0  0
  6 13  1  0  0  0  0
  8  9  1  0  0  0  0
  8 16  1  0  0  0  0
  9 14  2  0  0  0  0
  9 25  1  0  0  0  0
 11 17  1  0  0  0  0
 11 26  1  0  0  0  0
 11 27  1  0  0  0  0
 12 18  1  0  0  0  0
 12 28  1  0  0  0  0
 12 29  1  0  0  0  0
 13 15  2  0  0  0  0
 13 30  1  0  0  0  0
 14 15  1  0  0  0  0
 14 20  1  0  0  0  0
 15 31  1  0  0  0  0
 16 21  1  0  0  0  0
 17 19  1  0  0  0  0
 17 32  1  0  0  0  0
 17 33  1  0  0  0  0
 18 19  1  0  0  0  0
 18 34  1  0  0  0  0
 18 35  1  0  0  0  0
 19 23  1  0  0  0  0
 19 36  1  0  0  0  0
 20 22  1  0  0  0  0
 21 37  1  0  0  0  0
 21 38  1  0  0  0  0
 21 39  1  0  0  0  0
 22 40  1  0  0  0  0
 22 41  1  0  0  0  0
 22 42  1  0  0  0  0
 23 43  1  0  0  0  0
 23 44  1  0  0  0  0
 23 45  1  0  0  0  0
M  END
>  <$CLUSTER>
993

>  <INDEX>
648522

$$$$
Chem T&I UZI/4041208
  MOE2020           3D

 46 48  0  0  0  0  0  0  0  0999 V2000
   -1.0100    0.3480    0.4790 N   0  0  0  0  0  0  0  0  0  0  0  0
   -0.0800   -0.5170   -0.0670 C   0  0  0  0  0  0  0  0  0  0  0  0
   -0.6960   -1.6330   -0.4120 N   0  0  0  0  0  0  0  0  0  0  0  0
   -2.1980   -0.3370    0.4640 C   0  0  0  0  0  0  0  0  0  0  0  0
   -2.0200   -1.5250   -0.0670 N   0  0  0  0  0  0  0  0  0  0  0  0
   -5.6690   -3.3310    3.6500 C   0  0  0  0  0  0  0  0  0  0  0  0
   -5.5350   -2.3860    2.6150 N   0  0  0  0  0  0  0  0  0  0  0  0
   -3.6940    0.3140    1.0430 S   0  0  0  0  0  0  0  0  0  0  0  0
    1.3360   -0.2430   -0.2760 C   0  0  0  0  0  0  0  0  0  0  0  0
   -4.5820   -2.2360    1.6580 C   0  0  0  0  0  0  0  0  0  0  0  0
   -4.7040   -4.3180    3.8810 C   0  0  0  0  0  0  0  0  0  0  0  0
   -6.8080   -3.2720    4.4840 C   0  0  0  0  0  0  0  0  0  0  0  0
   -3.5520   -2.8980    1.5780 O   0  0  0  0  0  0  0  0  0  0  0  0
   -4.8260   -1.0570    0.7260 C   0  0  0  0  0  0  0  0  0  0  0  0
   -0.7670    1.7010    0.9470 C   0  0  0  0  0  0  0  0  0  0  0  0
    1.8420   -0.1600   -1.5790 C   0  0  0  0  0  0  0  0  0  0  0  0
    2.2100   -0.0980    0.8090 C   0  0  0  0  0  0  0  0  0  0  0  0
   -6.9570   -4.1970    5.5250 C   0  0  0  0  0  0  0  0  0  0  0  0
   -4.8640   -5.2340    4.9220 C   0  0  0  0  0  0  0  0  0  0  0  0
    4.0610    0.2420   -0.7080 C   0  0  0  0  0  0  0  0  0  0  0  0
   -5.9860   -5.1740    5.7410 C   0  0  0  0  0  0  0  0  0  0  0  0
    3.5670    0.1480    0.5920 C   0  0  0  0  0  0  0  0  0  0  0  0
    3.2000    0.0860   -1.7930 C   0  0  0  0  0  0  0  0  0  0  0  0
   -3.6820   -6.4320    5.1960 Cl  0  0  0  0  0  0  0  0  0  0  0  0
    5.3660    0.4840   -0.8320 F   0  0  0  0  0  0  0  0  0  0  0  0
   -7.7120   -2.2770    4.1950 O   0  0  0  0  0  0  0  0  0  0  0  0
   -8.8710   -2.1880    5.0150 C   0  0  0  0  0  0  0  0  0  0  0  0
   -0.9250    2.7310   -0.1580 C   0  0  0  0  0  0  0  0  0  0  0  0
   -6.2760   -1.7010    2.5770 H   0  0  0  0  0  0  0  0  0  0  0  0
   -3.8300   -4.3710    3.2490 H   0  0  0  0  0  0  0  0  0  0  0  0
   -4.6930   -1.3900   -0.3030 H   0  0  0  0  0  0  0  0  0  0  0  0
   -5.8490   -0.7060    0.8650 H   0  0  0  0  0  0  0  0  0  0  0  0
    0.2490    1.7590    1.3380 H   0  0  0  0  0  0  0  0  0  0  0  0
   -1.4760    1.9290    1.7430 H   0  0  0  0  0  0  0  0  0  0  0  0
    1.1790   -0.2870   -2.4220 H   0  0  0  0  0  0  0  0  0  0  0  0
    1.8320   -0.1770    1.8180 H   0  0  0  0  0  0  0  0  0  0  0  0
   -7.8270   -4.1530    6.1630 H   0  0  0  0  0  0  0  0  0  0  0  0
   -6.1050   -5.8850    6.5450 H   0  0  0  0  0  0  0  0  0  0  0  0
    4.2350    0.2660    1.4330 H   0  0  0  0  0  0  0  0  0  0  0  0
    3.5830    0.1550   -2.8000 H   0  0  0  0  0  0  0  0  0  0  0  0
   -9.4940   -1.3610    4.6750 H   0  0  0  0  0  0  0  0  0  0  0  0
   -8.5720   -2.0160    6.0490 H   0  0  0  0  0  0  0  0  0  0  0  0
   -9.4350   -3.1190    4.9500 H   0  0  0  0  0  0  0  0  0  0  0  0
   -0.2200    2.5140   -0.9610 H   0  0  0  0  0  0  0  0  0  0  0  0
   -0.7260    3.7260    0.2410 H   0  0  0  0  0  0  0  0  0  0  0  0
   -1.9420    2.6930   -0.5470 H   0  0  0  0  0  0  0  0  0  0  0  0
  1  2  1  0  0  0  0
  1  4  1  0  0  0  0
  1 15  1  0  0  0  0
  2  3  2  0  0  0  0
  2  9  1  0  0  0  0
  3  5  1  0  0  0  0
  4  5  2  0  0  0  0
  4  8  1  0  0  0  0
  6  7  1  0  0  0  0
  6 11  1  0  0  0  0
  6 12  2  0  0  0  0
  7 10  1  0  0  0  0
  7 29  1  0  0  0  0
  8 14  1  0  0  0  0
  9 16  1  0  0  0  0
  9 17  2  0  0  0  0
 10 13  2  0  0  0  0
 10 14  1  0  0  0  0
 11 19  2  0  0  0  0
 11 30  1  0  0  0  0
 12 18  1  0  0  0  0
 12 26  1  0  0  0  0
 14 31  1  0  0  0  0
 14 32  1  0  0  0  0
 15 28  1  0  0  0  0
 15 33  1  0  0  0  0
 15 34  1  0  0  0  0
 16 23  2  0  0  0  0
 16 35  1  0  0  0  0
 17 22  1  0  0  0  0
 17 36  1  0  0  0  0
 18 21  2  0  0  0  0
 18 37  1  0  0  0  0
 19 21  1  0  0  0  0
 19 24  1  0  0  0  0
 20 22  2  0  0  0  0
 20 23  1  0  0  0  0
 20 25  1  0  0  0  0
 21 38  1  0  0  0  0
 22 39  1  0  0  0  0
 23 40  1  0  0  0  0
 26 27  1  0  0  0  0
 27 41  1  0  0  0  0
 27 42  1  0  0  0  0
 27 43  1  0  0  0  0
 28 44  1  0  0  0  0
 28 45  1  0  0  0  0
 28 46  1  0  0  0  0
M  END
>  <$CLUSTER>
994

>  <INDEX>
649329

$$$$
Chem T&I UZI/9555149
  MOE2020           3D

 42 43  0  0  0  0  0  0  0  0999 V2000
   -1.7950    1.2670   -1.6620 C   0  0  0  0  0  0  0  0  0  0  0  0
   -1.6280   -0.0150   -0.8420 C   0  0  0  0  0  0  0  0  0  0  0  0
   -1.0500    2.2330   -1.5400 O   0  0  0  0  0  0  0  0  0  0  0  0
   -0.2550   -0.0930   -0.2000 C   0  0  0  0  0  0  0  0  0  0  0  0
   -2.7440   -0.1470    0.1980 C   0  0  0  0  0  0  0  0  0  0  0  0
   -2.8710    1.2400   -2.5140 N   0  0  0  0  0  0  0  0  0  0  0  0
   -4.1390    3.3200   -2.6730 C   0  0  0  0  0  0  0  0  0  0  0  0
   -5.3840    5.3570   -2.8510 O   0  0  0  0  0  0  0  0  0  0  0  0
   -3.2490    2.3180   -3.3860 C   0  0  0  0  0  0  0  0  0  0  0  0
   -4.5570    4.4650   -3.5820 C   0  0  0  0  0  0  0  0  0  0  0  0
    0.1750    0.8570    0.7400 C   0  0  0  0  0  0  0  0  0  0  0  0
   -2.8970    0.7880    1.2300 C   0  0  0  0  0  0  0  0  0  0  0  0
   -3.6320   -1.2300    0.1310 C   0  0  0  0  0  0  0  0  0  0  0  0
    0.6190   -1.1350   -0.5470 C   0  0  0  0  0  0  0  0  0  0  0  0
   -5.8120    6.4530   -3.6430 C   0  0  0  0  0  0  0  0  0  0  0  0
   -3.9180    0.6450    2.1730 C   0  0  0  0  0  0  0  0  0  0  0  0
   -4.6520   -1.3720    1.0750 C   0  0  0  0  0  0  0  0  0  0  0  0
    1.8870   -1.2250    0.0310 C   0  0  0  0  0  0  0  0  0  0  0  0
    1.4430    0.7650    1.3180 C   0  0  0  0  0  0  0  0  0  0  0  0
    2.2990   -0.2750    0.9630 C   0  0  0  0  0  0  0  0  0  0  0  0
   -4.7950   -0.4340    2.0950 C   0  0  0  0  0  0  0  0  0  0  0  0
   -1.7090   -0.8600   -1.5260 H   0  0  0  0  0  0  0  0  0  0  0  0
   -3.4370    0.4040   -2.5290 H   0  0  0  0  0  0  0  0  0  0  0  0
   -3.5950    3.7280   -1.8210 H   0  0  0  0  0  0  0  0  0  0  0  0
   -5.0340    2.8070   -2.3210 H   0  0  0  0  0  0  0  0  0  0  0  0
   -3.7880    1.9100   -4.2410 H   0  0  0  0  0  0  0  0  0  0  0  0
   -2.3490    2.8260   -3.7320 H   0  0  0  0  0  0  0  0  0  0  0  0
   -5.1090    4.0710   -4.4350 H   0  0  0  0  0  0  0  0  0  0  0  0
   -3.6710    4.9940   -3.9350 H   0  0  0  0  0  0  0  0  0  0  0  0
   -0.4820    1.6680    1.0190 H   0  0  0  0  0  0  0  0  0  0  0  0
   -2.2200    1.6270    1.2970 H   0  0  0  0  0  0  0  0  0  0  0  0
   -3.5270   -1.9610   -0.6570 H   0  0  0  0  0  0  0  0  0  0  0  0
    0.3070   -1.8750   -1.2690 H   0  0  0  0  0  0  0  0  0  0  0  0
   -6.4420    7.1100   -3.0440 H   0  0  0  0  0  0  0  0  0  0  0  0
   -6.3800    6.0840   -4.4970 H   0  0  0  0  0  0  0  0  0  0  0  0
   -4.9430    7.0070   -3.9970 H   0  0  0  0  0  0  0  0  0  0  0  0
   -4.0270    1.3720    2.9640 H   0  0  0  0  0  0  0  0  0  0  0  0
   -5.3310   -2.2100    1.0140 H   0  0  0  0  0  0  0  0  0  0  0  0
    2.5490   -2.0320   -0.2450 H   0  0  0  0  0  0  0  0  0  0  0  0
    1.7600    1.5010    2.0410 H   0  0  0  0  0  0  0  0  0  0  0  0
    3.2800   -0.3450    1.4090 H   0  0  0  0  0  0  0  0  0  0  0  0
   -5.5840   -0.5430    2.8240 H   0  0  0  0  0  0  0  0  0  0  0  0
  1  2  1  0  0  0  0
  1  3  2  0  0  0  0
  1  6  1  0  0  0  0
  2  4  1  0  0  0  0
  2  5  1  0  0  0  0
  2 22  1  0  0  0  0
  4 11  1  0  0  0  0
  4 14  2  0  0  0  0
  5 12  2  0  0  0  0
  5 13  1  0  0  0  0
  6  9  1  0  0  0  0
  6 23  1  0  0  0  0
  7  9  1  0  0  0  0
  7 10  1  0  0  0  0
  7 24  1  0  0  0  0
  7 25  1  0  0  0  0
  8 10  1  0  0  0  0
  8 15  1  0  0  0  0
  9 26  1  0  0  0  0
  9 27  1  0  0  0  0
 10 28  1  0  0  0  0
 10 29  1  0  0  0  0
 11 19  2  0  0  0  0
 11 30  1  0  0  0  0
 12 16  1  0  0  0  0
 12 31  1  0  0  0  0
 13 17  2  0  0  0  0
 13 32  1  0  0  0  0
 14 18  1  0  0  0  0
 14 33  1  0  0  0  0
 15 34  1  0  0  0  0
 15 35  1  0  0  0  0
 15 36  1  0  0  0  0
 16 21  2  0  0  0  0
 16 37  1  0  0  0  0
 17 21  1  0  0  0  0
 17 38  1  0  0  0  0
 18 20  2  0  0  0  0
 18 39  1  0  0  0  0
 19 20  1  0  0  0  0
 19 40  1  0  0  0  0
 20 41  1  0  0  0  0
 21 42  1  0  0  0  0
M  END
>  <$CLUSTER>
995

>  <INDEX>
650251

$$$$
Chem T&I VAD 0002167
  MOE2020           3D

 51 52  0  0  0  0  0  0  0  0999 V2000
    0.1140    0.4120    0.1680 C   0  0  0  0  0  0  0  0  0  0  0  0
   -2.1660    1.0370    0.8300 C   0  0  0  0  0  0  0  0  0  0  0  0
   -0.7940   -0.5990   -0.1390 C   0  0  0  0  0  0  0  0  0  0  0  0
   -2.1420   -0.2190    0.2580 C   0  0  0  0  0  0  0  0  0  0  0  0
   -0.6300    1.7540    0.8990 S   0  0  0  0  0  0  0  0  0  0  0  0
   -3.3320    1.7860    1.3630 C   0  0  0  0  0  0  0  0  0  0  0  0
    1.4860    0.4090   -0.0620 N   0  0  0  0  0  0  0  0  0  0  0  0
    2.3960    1.4150    0.2420 C   0  0  0  0  0  0  0  0  0  0  0  0
   -0.4590   -1.8800   -0.7750 C   0  0  0  0  0  0  0  0  0  0  0  0
    3.7920    1.0160   -0.1710 C   0  0  0  0  0  0  0  0  0  0  0  0
    4.0940    0.1450   -1.1920 C   0  0  0  0  0  0  0  0  0  0  0  0
   -3.0840    3.0400    1.8890 N   0  0  0  0  0  0  0  0  0  0  0  0
    5.4220   -0.1410   -1.5220 C   0  0  0  0  0  0  0  0  0  0  0  0
   -4.4780    1.3340    1.3500 O   0  0  0  0  0  0  0  0  0  0  0  0
    2.1900    2.5030    0.7680 O   0  0  0  0  0  0  0  0  0  0  0  0
    6.4650    0.4700   -0.8290 C   0  0  0  0  0  0  0  0  0  0  0  0
   -1.2780   -2.7540   -1.0330 O   0  0  0  0  0  0  0  0  0  0  0  0
    4.8600    1.6640    0.5270 C   0  0  0  0  0  0  0  0  0  0  0  0
    6.1840    1.3740    0.1930 C   0  0  0  0  0  0  0  0  0  0  0  0
   -3.3710   -1.0530    0.0840 C   0  0  0  0  0  0  0  0  0  0  0  0
    0.8590   -2.0400   -1.0680 O   0  0  0  0  0  0  0  0  0  0  0  0
    5.7280   -1.1060   -2.6220 C   0  0  0  0  0  0  0  0  0  0  0  0
   -4.1520    3.8720    2.4430 C   0  0  0  0  0  0  0  0  0  0  0  0
   -1.7420    3.6790    1.9550 C   0  0  0  0  0  0  0  0  0  0  0  0
    7.8800    0.1530   -1.1870 C   0  0  0  0  0  0  0  0  0  0  0  0
    1.3010   -3.2180   -1.6750 C   0  0  0  0  0  0  0  0  0  0  0  0
    2.7990   -3.1370   -1.8900 C   0  0  0  0  0  0  0  0  0  0  0  0
    1.8640   -0.4190   -0.5000 H   0  0  0  0  0  0  0  0  0  0  0  0
    3.2940   -0.3240   -1.7460 H   0  0  0  0  0  0  0  0  0  0  0  0
    4.6420    2.3750    1.3100 H   0  0  0  0  0  0  0  0  0  0  0  0
    6.9920    1.8510    0.7280 H   0  0  0  0  0  0  0  0  0  0  0  0
   -4.2340   -0.5130    0.4730 H   0  0  0  0  0  0  0  0  0  0  0  0
   -3.2540   -1.9910    0.6270 H   0  0  0  0  0  0  0  0  0  0  0  0
   -3.5210   -1.2630   -0.9750 H   0  0  0  0  0  0  0  0  0  0  0  0
    4.7960   -1.4810   -3.0460 H   0  0  0  0  0  0  0  0  0  0  0  0
    6.3070   -1.9390   -2.2240 H   0  0  0  0  0  0  0  0  0  0  0  0
    6.3040   -0.6020   -3.3980 H   0  0  0  0  0  0  0  0  0  0  0  0
   -5.1020    3.3440    2.3620 H   0  0  0  0  0  0  0  0  0  0  0  0
   -4.2080    4.8080    1.8880 H   0  0  0  0  0  0  0  0  0  0  0  0
   -3.9410    4.0830    3.4910 H   0  0  0  0  0  0  0  0  0  0  0  0
   -0.9980    3.0070    1.5270 H   0  0  0  0  0  0  0  0  0  0  0  0
   -1.4890    3.8860    2.9950 H   0  0  0  0  0  0  0  0  0  0  0  0
   -1.7560    4.6120    1.3910 H   0  0  0  0  0  0  0  0  0  0  0  0
    7.8950   -0.5690   -2.0030 H   0  0  0  0  0  0  0  0  0  0  0  0
    8.3890   -0.2680   -0.3200 H   0  0  0  0  0  0  0  0  0  0  0  0
    8.3890    1.0650   -1.4990 H   0  0  0  0  0  0  0  0  0  0  0  0
    0.8010   -3.3430   -2.6360 H   0  0  0  0  0  0  0  0  0  0  0  0
    1.0700   -4.0680   -1.0320 H   0  0  0  0  0  0  0  0  0  0  0  0
    3.0280   -2.2870   -2.5330 H   0  0  0  0  0  0  0  0  0  0  0  0
    3.1480   -4.0550   -2.3630 H   0  0  0  0  0  0  0  0  0  0  0  0
    3.2980   -3.0110   -0.9290 H   0  0  0  0  0  0  0  0  0  0  0  0
  1  3  2  0  0  0  0
  1  5  1  0  0  0  0
  1  7  1  0  0  0  0
  2  4  2  0  0  0  0
  2  5  1  0  0  0  0
  2  6  1  0  0  0  0
  3  4  1  0  0  0  0
  3  9  1  0  0  0  0
  4 20  1  0  0  0  0
  6 12  1  0  0  0  0
  6 14  2  0  0  0  0
  7  8  1  0  0  0  0
  7 28  1  0  0  0  0
  8 10  1  0  0  0  0
  8 15  2  0  0  0  0
  9 17  2  0  0  0  0
  9 21  1  0  0  0  0
 10 11  1  0  0  0  0
 10 18  2  0  0  0  0
 11 13  2  0  0  0  0
 11 29  1  0  0  0  0
 12 23  1  0  0  0  0
 12 24  1  0  0  0  0
 13 16  1  0  0  0  0
 13 22  1  0  0  0  0
 16 19  2  0  0  0  0
 16 25  1  0  0  0  0
 18 19  1  0  0  0  0
 18 30  1  0  0  0  0
 19 31  1  0  0  0  0
 20 32  1  0  0  0  0
 20 33  1  0  0  0  0
 20 34  1  0  0  0  0
 21 26  1  0  0  0  0
 22 35  1  0  0  0  0
 22 36  1  0  0  0  0
 22 37  1  0  0  0  0
 23 38  1  0  0  0  0
 23 39  1  0  0  0  0
 23 40  1  0  0  0  0
 24 41  1  0  0  0  0
 24 42  1  0  0  0  0
 24 43  1  0  0  0  0
 25 44  1  0  0  0  0
 25 45  1  0  0  0  0
 25 46  1  0  0  0  0
 26 27  1  0  0  0  0
 26 47  1  0  0  0  0
 26 48  1  0  0  0  0
 27 49  1  0  0  0  0
 27 50  1  0  0  0  0
 27 51  1  0  0  0  0
M  END
>  <$CLUSTER>
996

>  <INDEX>
650444

$$$$
Nanosyn NS61821
  MOE2020           3D

 51 53  0  0  0  0  0  0  0  0999 V2000
    1.5660    1.3410   -0.0310 S   0  0  0  0  0  0  0  0  0  0  0  0
    0.0890    1.1350    0.7380 N   0  0  0  0  0  0  0  0  0  0  0  0
   -0.6420    0.0230    0.3240 C   0  0  0  0  0  0  0  0  0  0  0  0
    5.6360   -3.4340    3.0170 C   0  0  0  0  0  0  0  0  0  0  0  0
   -1.3630    0.1340   -0.8020 N   0  0  0  0  0  0  0  0  0  0  0  0
   -0.5130   -1.0660    1.0940 N   0  0  0  0  0  0  0  0  0  0  0  0
    6.2700   -4.8030    3.0740 C   0  0  0  0  0  0  0  0  0  0  0  0
    2.5370   -0.0360    0.5860 C   0  0  0  0  0  0  0  0  0  0  0  0
    4.8320   -3.3000    1.8920 N   0  0  0  0  0  0  0  0  0  0  0  0
    2.1480    2.5670    0.5000 O   0  0  0  0  0  0  0  0  0  0  0  0
    1.4130    1.1990   -1.4710 O   0  0  0  0  0  0  0  0  0  0  0  0
   -2.0340   -0.9820   -1.1670 C   0  0  0  0  0  0  0  0  0  0  0  0
   -1.2080   -2.1500    0.6820 C   0  0  0  0  0  0  0  0  0  0  0  0
    6.6590   -5.2550    4.3720 C   0  0  0  0  0  0  0  0  0  0  0  0
    6.5480   -5.5850    1.9780 C   0  0  0  0  0  0  0  0  0  0  0  0
    5.8550   -2.6040    3.8930 O   0  0  0  0  0  0  0  0  0  0  0  0
   -1.9930   -2.1640   -0.4540 C   0  0  0  0  0  0  0  0  0  0  0  0
    7.1650   -6.8290    2.1260 C   0  0  0  0  0  0  0  0  0  0  0  0
    7.2760   -6.5000    4.5140 C   0  0  0  0  0  0  0  0  0  0  0  0
    3.2600    0.1090    1.7620 C   0  0  0  0  0  0  0  0  0  0  0  0
    2.5680   -1.2130   -0.1530 C   0  0  0  0  0  0  0  0  0  0  0  0
    4.0670   -2.1550    1.4940 C   0  0  0  0  0  0  0  0  0  0  0  0
    7.5260   -7.2870    3.3930 C   0  0  0  0  0  0  0  0  0  0  0  0
    3.3380   -2.2810    0.3100 C   0  0  0  0  0  0  0  0  0  0  0  0
    4.0290   -0.9630    2.2190 C   0  0  0  0  0  0  0  0  0  0  0  0
   -2.8600   -0.9030   -2.4170 C   0  0  0  0  0  0  0  0  0  0  0  0
   -1.0960   -3.4200    1.5520 C   0  0  0  0  0  0  0  0  0  0  0  0
    7.4390   -7.6690    0.9200 C   0  0  0  0  0  0  0  0  0  0  0  0
    7.6680   -6.9900    5.8710 C   0  0  0  0  0  0  0  0  0  0  0  0
   -0.2460    1.7700    1.4490 H   0  0  0  0  0  0  0  0  0  0  0  0
    4.7800   -4.1040    1.2830 H   0  0  0  0  0  0  0  0  0  0  0  0
    6.4770   -4.6370    5.2390 H   0  0  0  0  0  0  0  0  0  0  0  0
    6.2860   -5.2330    0.9910 H   0  0  0  0  0  0  0  0  0  0  0  0
   -2.5390   -3.0420   -0.7650 H   0  0  0  0  0  0  0  0  0  0  0  0
    3.2280    1.0360    2.3150 H   0  0  0  0  0  0  0  0  0  0  0  0
    2.0050   -1.3000   -1.0710 H   0  0  0  0  0  0  0  0  0  0  0  0
    7.9990   -8.2510    3.5040 H   0  0  0  0  0  0  0  0  0  0  0  0
    3.3700   -3.2050   -0.2480 H   0  0  0  0  0  0  0  0  0  0  0  0
    4.5950   -0.8700    3.1340 H   0  0  0  0  0  0  0  0  0  0  0  0
   -2.7760    0.0960   -2.8460 H   0  0  0  0  0  0  0  0  0  0  0  0
   -3.9030   -1.1080   -2.1770 H   0  0  0  0  0  0  0  0  0  0  0  0
   -2.5010   -1.6390   -3.1370 H   0  0  0  0  0  0  0  0  0  0  0  0
   -0.4390   -3.2230    2.3990 H   0  0  0  0  0  0  0  0  0  0  0  0
   -0.6850   -4.2340    0.9550 H   0  0  0  0  0  0  0  0  0  0  0  0
   -2.0850   -3.7000    1.9160 H   0  0  0  0  0  0  0  0  0  0  0  0
    7.0890   -7.1490    0.0280 H   0  0  0  0  0  0  0  0  0  0  0  0
    6.9170   -8.6210    1.0140 H   0  0  0  0  0  0  0  0  0  0  0  0
    8.5110   -7.8490    0.8390 H   0  0  0  0  0  0  0  0  0  0  0  0
    7.3950   -6.2450    6.6190 H   0  0  0  0  0  0  0  0  0  0  0  0
    8.7450   -7.1570    5.9000 H   0  0  0  0  0  0  0  0  0  0  0  0
    7.1500   -7.9250    6.0830 H   0  0  0  0  0  0  0  0  0  0  0  0
  1  2  1  0  0  0  0
  1  8  1  0  0  0  0
  1 10  2  0  0  0  0
  1 11  2  0  0  0  0
  2  3  1  0  0  0  0
  2 30  1  0  0  0  0
  3  5  2  0  0  0  0
  3  6  1  0  0  0  0
  4  7  1  0  0  0  0
  4  9  1  0  0  0  0
  4 16  2  0  0  0  0
  5 12  1  0  0  0  0
  6 13  2  0  0  0  0
  7 14  1  0  0  0  0
  7 15  2  0  0  0  0
  8 20  1  0  0  0  0
  8 21  2  0  0  0  0
  9 22  1  0  0  0  0
  9 31  1  0  0  0  0
 12 17  2  0  0  0  0
 12 26  1  0  0  0  0
 13 17  1  0  0  0  0
 13 27  1  0  0  0  0
 14 19  2  0  0  0  0
 14 32  1  0  0  0  0
 15 18  1  0  0  0  0
 15 33  1  0  0  0  0
 17 34  1  0  0  0  0
 18 23  2  0  0  0  0
 18 28  1  0  0  0  0
 19 23  1  0  0  0  0
 19 29  1  0  0  0  0
 20 25  2  0  0  0  0
 20 35  1  0  0  0  0
 21 24  1  0  0  0  0
 21 36  1  0  0  0  0
 22 24  2  0  0  0  0
 22 25  1  0  0  0  0
 23 37  1  0  0  0  0
 24 38  1  0  0  0  0
 25 39  1  0  0  0  0
 26 40  1  0  0  0  0
 26 41  1  0  0  0  0
 26 42  1  0  0  0  0
 27 43  1  0  0  0  0
 27 44  1  0  0  0  0
 27 45  1  0  0  0  0
 28 46  1  0  0  0  0
 28 47  1  0  0  0  0
 28 48  1  0  0  0  0
 29 49  1  0  0  0  0
 29 50  1  0  0  0  0
 29 51  1  0  0  0  0
M  END
>  <$CLUSTER>
997

>  <INDEX>
566297

$$$$
Tripos 1557-06740
  MOE2020           3D

 47 50  0  0  0  0  0  0  0  0999 V2000
    2.1880    0.0380   -1.5830 S   0  0  0  0  0  0  0  0  0  0  0  0
    0.9490   -0.0300   -0.4530 N   0  0  0  0  0  0  0  0  0  0  0  0
    3.2190   -0.4060    0.0150 C   0  0  0  0  0  0  0  0  0  0  0  0
   -1.6750    0.0220    0.9530 N   0  0  0  0  0  0  0  0  0  0  0  0
   -2.9980    0.1120    1.0560 C   0  0  0  0  0  0  0  0  0  0  0  0
   -3.7340   -1.0210    0.8710 N   0  0  0  0  0  0  0  0  0  0  0  0
    2.3420   -1.1150   -2.3780 O   0  0  0  0  0  0  0  0  0  0  0  0
    2.6500    1.3320   -1.8950 O   0  0  0  0  0  0  0  0  0  0  0  0
   -0.0470   -1.1260   -0.5730 C   0  0  0  0  0  0  0  0  0  0  0  0
    0.2490    1.2350   -0.1070 C   0  0  0  0  0  0  0  0  0  0  0  0
    3.9670    0.6170    0.6850 C   0  0  0  0  0  0  0  0  0  0  0  0
   -0.9780   -1.2360    0.6500 C   0  0  0  0  0  0  0  0  0  0  0  0
   -0.6850    1.0970    1.1110 C   0  0  0  0  0  0  0  0  0  0  0  0
    4.8590    0.3020    1.7120 C   0  0  0  0  0  0  0  0  0  0  0  0
    3.7150   -1.7460    0.1890 C   0  0  0  0  0  0  0  0  0  0  0  0
    5.1770   -1.0310    1.9770 C   0  0  0  0  0  0  0  0  0  0  0  0
    4.6070   -2.0540    1.2170 C   0  0  0  0  0  0  0  0  0  0  0  0
   -5.0860   -0.9410    0.9730 C   0  0  0  0  0  0  0  0  0  0  0  0
   -3.6360    1.3270    1.3470 C   0  0  0  0  0  0  0  0  0  0  0  0
   -5.0270    1.3830    1.4470 C   0  0  0  0  0  0  0  0  0  0  0  0
    5.4630    1.3330    2.4620 C   0  0  0  0  0  0  0  0  0  0  0  0
   -5.7730    0.2280    1.2570 C   0  0  0  0  0  0  0  0  0  0  0  0
    6.1500   -1.3290    2.9530 C   0  0  0  0  0  0  0  0  0  0  0  0
   -5.8720   -2.2540    0.7540 C   0  0  0  0  0  0  0  0  0  0  0  0
    6.4010    1.0220    3.4460 C   0  0  0  0  0  0  0  0  0  0  0  0
    6.7440   -0.3050    3.6910 C   0  0  0  0  0  0  0  0  0  0  0  0
    0.4880   -2.0690   -0.6880 H   0  0  0  0  0  0  0  0  0  0  0  0
   -0.6570   -0.9440   -1.4580 H   0  0  0  0  0  0  0  0  0  0  0  0
   -0.3450    1.5490   -0.9660 H   0  0  0  0  0  0  0  0  0  0  0  0
    0.9970    1.9960    0.1140 H   0  0  0  0  0  0  0  0  0  0  0  0
    3.8390    1.6480    0.3910 H   0  0  0  0  0  0  0  0  0  0  0  0
   -1.7220   -2.0070    0.4520 H   0  0  0  0  0  0  0  0  0  0  0  0
   -0.3810   -1.5210    1.5170 H   0  0  0  0  0  0  0  0  0  0  0  0
   -0.0790    0.8850    1.9920 H   0  0  0  0  0  0  0  0  0  0  0  0
   -1.2140    2.0390    1.2520 H   0  0  0  0  0  0  0  0  0  0  0  0
    3.3920   -2.5250   -0.4860 H   0  0  0  0  0  0  0  0  0  0  0  0
    4.8560   -3.0840    1.4250 H   0  0  0  0  0  0  0  0  0  0  0  0
   -3.0490    2.2220    1.4940 H   0  0  0  0  0  0  0  0  0  0  0  0
   -5.5190    2.3180    1.6710 H   0  0  0  0  0  0  0  0  0  0  0  0
    5.1990    2.3630    2.2740 H   0  0  0  0  0  0  0  0  0  0  0  0
   -6.8510    0.2400    1.3280 H   0  0  0  0  0  0  0  0  0  0  0  0
    6.4370   -2.3550    3.1300 H   0  0  0  0  0  0  0  0  0  0  0  0
   -5.1740   -3.0640    0.5430 H   0  0  0  0  0  0  0  0  0  0  0  0
   -6.5540   -2.1330   -0.0880 H   0  0  0  0  0  0  0  0  0  0  0  0
   -6.4420   -2.4900    1.6520 H   0  0  0  0  0  0  0  0  0  0  0  0
    6.8620    1.8120    4.0190 H   0  0  0  0  0  0  0  0  0  0  0  0
    7.4710   -0.5420    4.4540 H   0  0  0  0  0  0  0  0  0  0  0  0
  1  2  1  0  0  0  0
  1  3  1  0  0  0  0
  1  7  2  0  0  0  0
  1  8  2  0  0  0  0
  2  9  1  0  0  0  0
  2 10  1  0  0  0  0
  3 11  2  0  0  0  0
  3 15  1  0  0  0  0
  4  5  1  0  0  0  0
  4 12  1  0  0  0  0
  4 13  1  0  0  0  0
  5  6  2  0  0  0  0
  5 19  1  0  0  0  0
  6 18  1  0  0  0  0
  9 12  1  0  0  0  0
  9 27  1  0  0  0  0
  9 28  1  0  0  0  0
 10 13  1  0  0  0  0
 10 29  1  0  0  0  0
 10 30  1  0  0  0  0
 11 14  1  0  0  0  0
 11 31  1  0  0  0  0
 12 32  1  0  0  0  0
 12 33  1  0  0  0  0
 13 34  1  0  0  0  0
 13 35  1  0  0  0  0
 14 16  2  0  0  0  0
 14 21  1  0  0  0  0
 15 17  2  0  0  0  0
 15 36  1  0  0  0  0
 16 17  1  0  0  0  0
 16 23  1  0  0  0  0
 17 37  1  0  0  0  0
 18 22  2  0  0  0  0
 18 24  1  0  0  0  0
 19 20  2  0  0  0  0
 19 38  1  0  0  0  0
 20 22  1  0  0  0  0
 20 39  1  0  0  0  0
 21 25  2  0  0  0  0
 21 40  1  0  0  0  0
 22 41  1  0  0  0  0
 23 26  2  0  0  0  0
 23 42  1  0  0  0  0
 24 43  1  0  0  0  0
 24 44  1  0  0  0  0
 24 45  1  0  0  0  0
 25 26  1  0  0  0  0
 25 46  1  0  0  0  0
 26 47  1  0  0  0  0
M  END
>  <$CLUSTER>
998

>  <INDEX>
470204

$$$$
Chembridge 6350086
  MOE2020           3D

 43 44  0  0  0  0  0  0  0  0999 V2000
   -0.2580    0.2010   -0.0050 C   0  0  0  0  0  0  0  0  0  0  0  0
    0.3120    0.9830    1.0080 C   0  0  0  0  0  0  0  0  0  0  0  0
   -4.3710   -1.0470   -2.7400 C   0  0  0  0  0  0  0  0  0  0  0  0
   -1.6970    0.3800   -0.3220 C   0  0  0  0  0  0  0  0  0  0  0  0
    1.6630    0.8400    1.3310 C   0  0  0  0  0  0  0  0  0  0  0  0
   -5.7080   -0.8040   -2.9500 N   0  0  0  0  0  0  0  0  0  0  0  0
    2.4510   -0.0830    0.6470 C   0  0  0  0  0  0  0  0  0  0  0  0
    0.5370   -0.7240   -0.6880 C   0  0  0  0  0  0  0  0  0  0  0  0
   -3.7250   -1.8770   -3.3800 O   0  0  0  0  0  0  0  0  0  0  0  0
   -2.3630    1.2030    0.3010 O   0  0  0  0  0  0  0  0  0  0  0  0
   -2.3180   -0.4560   -1.4090 C   0  0  0  0  0  0  0  0  0  0  0  0
    1.8880   -0.8640   -0.3610 C   0  0  0  0  0  0  0  0  0  0  0  0
   -6.6180   -1.3720   -3.8590 C   0  0  0  0  0  0  0  0  0  0  0  0
   -3.7770   -0.1950   -1.6460 C   0  0  0  0  0  0  0  0  0  0  0  0
   -8.5220   -2.4370   -5.6290 C   0  0  0  0  0  0  0  0  0  0  0  0
   -7.9440   -0.9170   -3.8440 C   0  0  0  0  0  0  0  0  0  0  0  0
   -6.2560   -2.3690   -4.7710 C   0  0  0  0  0  0  0  0  0  0  0  0
   -7.2060   -2.8970   -5.6520 C   0  0  0  0  0  0  0  0  0  0  0  0
   -8.8910   -1.4470   -4.7240 C   0  0  0  0  0  0  0  0  0  0  0  0
    2.2660    1.6780    2.4120 C   0  0  0  0  0  0  0  0  0  0  0  0
    3.8950   -0.2340    0.9950 C   0  0  0  0  0  0  0  0  0  0  0  0
   -9.5280   -3.0080   -6.5720 C   0  0  0  0  0  0  0  0  0  0  0  0
   -0.2960    1.6990    1.5410 H   0  0  0  0  0  0  0  0  0  0  0  0
   -6.1040   -0.0960   -2.3480 H   0  0  0  0  0  0  0  0  0  0  0  0
    0.1060   -1.3320   -1.4700 H   0  0  0  0  0  0  0  0  0  0  0  0
   -2.2000   -1.5050   -1.1390 H   0  0  0  0  0  0  0  0  0  0  0  0
   -1.7830   -0.2580   -2.3370 H   0  0  0  0  0  0  0  0  0  0  0  0
    2.4980   -1.5800   -0.8910 H   0  0  0  0  0  0  0  0  0  0  0  0
   -4.3180   -0.3950   -0.7210 H   0  0  0  0  0  0  0  0  0  0  0  0
   -3.9000    0.8530   -1.9200 H   0  0  0  0  0  0  0  0  0  0  0  0
   -8.2370   -0.1480   -3.1440 H   0  0  0  0  0  0  0  0  0  0  0  0
   -5.2390   -2.7330   -4.7950 H   0  0  0  0  0  0  0  0  0  0  0  0
   -6.9180   -3.6660   -6.3540 H   0  0  0  0  0  0  0  0  0  0  0  0
   -9.9090   -1.0880   -4.7020 H   0  0  0  0  0  0  0  0  0  0  0  0
    1.5040    2.3360    2.8300 H   0  0  0  0  0  0  0  0  0  0  0  0
    3.0760    2.2780    1.9970 H   0  0  0  0  0  0  0  0  0  0  0  0
    2.6580    1.0310    3.1970 H   0  0  0  0  0  0  0  0  0  0  0  0
    4.1490    0.4560    1.8000 H   0  0  0  0  0  0  0  0  0  0  0  0
    4.5050   -0.0110    0.1200 H   0  0  0  0  0  0  0  0  0  0  0  0
    4.0860   -1.2570    1.3190 H   0  0  0  0  0  0  0  0  0  0  0  0
   -9.0520   -3.7640   -7.1960 H   0  0  0  0  0  0  0  0  0  0  0  0
   -9.9260   -2.2140   -7.2030 H   0  0  0  0  0  0  0  0  0  0  0  0
  -10.3400   -3.4630   -6.0050 H   0  0  0  0  0  0  0  0  0  0  0  0
  1  2  1  0  0  0  0
  1  4  1  0  0  0  0
  1  8  2  0  0  0  0
  2  5  2  0  0  0  0
  2 23  1  0  0  0  0
  3  6  1  0  0  0  0
  3  9  2  0  0  0  0
  3 14  1  0  0  0  0
  4 10  2  0  0  0  0
  4 11  1  0  0  0  0
  5  7  1  0  0  0  0
  5 20  1  0  0  0  0
  6 13  1  0  0  0  0
  6 24  1  0  0  0  0
  7 12  2  0  0  0  0
  7 21  1  0  0  0  0
  8 12  1  0  0  0  0
  8 25  1  0  0  0  0
 11 14  1  0  0  0  0
 11 26  1  0  0  0  0
 11 27  1  0  0  0  0
 12 28  1  0  0  0  0
 13 16  1  0  0  0  0
 13 17  2  0  0  0  0
 14 29  1  0  0  0  0
 14 30  1  0  0  0  0
 15 18  2  0  0  0  0
 15 19  1  0  0  0  0
 15 22  1  0  0  0  0
 16 19  2  0  0  0  0
 16 31  1  0  0  0  0
 17 18  1  0  0  0  0
 17 32  1  0  0  0  0
 18 33  1  0  0  0  0
 19 34  1  0  0  0  0
 20 35  1  0  0  0  0
 20 36  1  0  0  0  0
 20 37  1  0  0  0  0
 21 38  1  0  0  0  0
 21 39  1  0  0  0  0
 21 40  1  0  0  0  0
 22 41  1  0  0  0  0
 22 42  1  0  0  0  0
 22 43  1  0  0  0  0
M  END
>  <$CLUSTER>
999

>  <INDEX>
61427

$$$$
Enamine T0500-3039
  MOE2020           3D

 41 43  0  0  0  0  0  0  0  0999 V2000
   -4.6690   -2.3860    0.7820 C   0  0  0  0  0  0  0  0  0  0  0  0
   -0.1500    1.1020    0.0960 C   0  0  0  0  0  0  0  0  0  0  0  0
   -5.7190   -2.2700   -0.1020 N   0  0  0  0  0  0  0  0  0  0  0  0
   -3.5160   -1.4730    0.5790 C   0  0  0  0  0  0  0  0  0  0  0  0
   -1.2990    0.1900    0.2560 C   0  0  0  0  0  0  0  0  0  0  0  0
   -4.6500   -3.2090    1.6940 O   0  0  0  0  0  0  0  0  0  0  0  0
   -0.3240    2.3100    0.2240 O   0  0  0  0  0  0  0  0  0  0  0  0
    1.2040    0.6010   -0.2150 C   0  0  0  0  0  0  0  0  0  0  0  0
   -3.6600   -0.2330   -0.0410 C   0  0  0  0  0  0  0  0  0  0  0  0
   -2.2660   -1.8780    1.0470 C   0  0  0  0  0  0  0  0  0  0  0  0
   -2.5550    0.6040   -0.2000 C   0  0  0  0  0  0  0  0  0  0  0  0
   -1.1550   -1.0460    0.8910 C   0  0  0  0  0  0  0  0  0  0  0  0
   -6.9080   -3.0460   -0.0880 C   0  0  0  0  0  0  0  0  0  0  0  0
   -6.7300   -4.3470   -0.8480 C   0  0  0  0  0  0  0  0  0  0  0  0
    1.3920   -0.4690   -1.0940 C   0  0  0  0  0  0  0  0  0  0  0  0
    2.3070    1.2460    0.3530 C   0  0  0  0  0  0  0  0  0  0  0  0
   -6.4700   -5.5520   -0.1670 C   0  0  0  0  0  0  0  0  0  0  0  0
   -6.8190   -4.3770   -2.2520 C   0  0  0  0  0  0  0  0  0  0  0  0
    3.5970    0.8020    0.0590 C   0  0  0  0  0  0  0  0  0  0  0  0
    2.6850   -0.9070   -1.3840 C   0  0  0  0  0  0  0  0  0  0  0  0
   -6.6580   -5.5750   -2.9530 C   0  0  0  0  0  0  0  0  0  0  0  0
   -6.3080   -6.7490   -0.8710 C   0  0  0  0  0  0  0  0  0  0  0  0
   -6.4050   -6.7600   -2.2630 C   0  0  0  0  0  0  0  0  0  0  0  0
    3.7860   -0.2750   -0.8070 C   0  0  0  0  0  0  0  0  0  0  0  0
   -5.6360   -1.5700   -0.8250 H   0  0  0  0  0  0  0  0  0  0  0  0
   -4.6290    0.0810   -0.3990 H   0  0  0  0  0  0  0  0  0  0  0  0
   -2.1570   -2.8370    1.5310 H   0  0  0  0  0  0  0  0  0  0  0  0
   -2.6690    1.5680   -0.6730 H   0  0  0  0  0  0  0  0  0  0  0  0
   -0.1890   -1.3570    1.2600 H   0  0  0  0  0  0  0  0  0  0  0  0
   -7.7110   -2.4720   -0.5510 H   0  0  0  0  0  0  0  0  0  0  0  0
   -7.1710   -3.2720    0.9450 H   0  0  0  0  0  0  0  0  0  0  0  0
    0.5400   -0.9550   -1.5470 H   0  0  0  0  0  0  0  0  0  0  0  0
    2.1610    2.0850    1.0170 H   0  0  0  0  0  0  0  0  0  0  0  0
   -6.3950   -5.5510    0.9100 H   0  0  0  0  0  0  0  0  0  0  0  0
   -7.0140   -3.4630   -2.7940 H   0  0  0  0  0  0  0  0  0  0  0  0
    4.4500    1.2930    0.5030 H   0  0  0  0  0  0  0  0  0  0  0  0
    2.8330   -1.7380   -2.0570 H   0  0  0  0  0  0  0  0  0  0  0  0
   -6.7300   -5.5830   -4.0310 H   0  0  0  0  0  0  0  0  0  0  0  0
   -6.1080   -7.6660   -0.3370 H   0  0  0  0  0  0  0  0  0  0  0  0
   -6.2840   -7.6860   -2.8060 H   0  0  0  0  0  0  0  0  0  0  0  0
    4.7850   -0.6190   -1.0310 H   0  0  0  0  0  0  0  0  0  0  0  0
  1  3  1  0  0  0  0
  1  4  1  0  0  0  0
  1  6  2  0  0  0  0
  2  5  1  0  0  0  0
  2  7  2  0  0  0  0
  2  8  1  0  0  0  0
  3 13  1  0  0  0  0
  3 25  1  0  0  0  0
  4  9  2  0  0  0  0
  4 10  1  0  0  0  0
  5 11  2  0  0  0  0
  5 12  1  0  0  0  0
  8 15  1  0  0  0  0
  8 16  2  0  0  0  0
  9 11  1  0  0  0  0
  9 26  1  0  0  0  0
 10 12  2  0  0  0  0
 10 27  1  0  0  0  0
 11 28  1  0  0  0  0
 12 29  1  0  0  0  0
 13 14  1  0  0  0  0
 13 30  1  0  0  0  0
 13 31  1  0  0  0  0
 14 17  1  0  0  0  0
 14 18  2  0  0  0  0
 15 20  2  0  0  0  0
 15 32  1  0  0  0  0
 16 19  1  0  0  0  0
 16 33  1  0  0  0  0
 17 22  2  0  0  0  0
 17 34  1  0  0  0  0
 18 21  1  0  0  0  0
 18 35  1  0  0  0  0
 19 24  2  0  0  0  0
 19 36  1  0  0  0  0
 20 24  1  0  0  0  0
 20 37  1  0  0  0  0
 21 23  2  0  0  0  0
 21 38  1  0  0  0  0
 22 23  1  0  0  0  0
 22 39  1  0  0  0  0
 23 40  1  0  0  0  0
 24 41  1  0  0  0  0
M  END
>  <$CLUSTER>
1000

>  <INDEX>
404414

$$$$
