Enamine T0505-3993
 OpenBabel04062209303D

 41 43  0  0  0  0  0  0  0  0999 V2000
   -0.6820    1.7120   -1.5450 S   0  0  0  0  0  0  0  0  0  0  0  0
   -0.6230   -0.0980    1.9850 C   0  0  0  0  0  0  0  0  0  0  0  0
    0.4710    1.3430   -0.3630 N   0  0  0  0  0  0  0  0  0  0  0  0
    0.2270   -0.7480    0.9750 C   0  0  0  0  0  0  0  0  0  0  0  0
    0.7640   -0.0360   -0.1060 C   0  0  0  0  0  0  0  0  0  0  0  0
   -2.2150    1.1960   -0.7780 C   0  0  0  0  0  0  0  0  0  0  0  0
   -1.7610   -0.7620    2.3160 N   0  0  0  0  0  0  0  0  0  0  0  0
   -0.7110    3.1610   -1.6750 O   0  0  0  0  0  0  0  0  0  0  0  0
   -0.4500    0.8960   -2.7250 O   0  0  0  0  0  0  0  0  0  0  0  0
   -0.3180    0.9830    2.4780 O   0  0  0  0  0  0  0  0  0  0  0  0
   -2.6570   -0.1100   -0.9860 C   0  0  0  0  0  0  0  0  0  0  0  0
   -2.9510    2.1020   -0.0300 C   0  0  0  0  0  0  0  0  0  0  0  0
   -2.8010   -0.4770    3.2120 C   0  0  0  0  0  0  0  0  0  0  0  0
   -4.6120    0.3870    0.3480 C   0  0  0  0  0  0  0  0  0  0  0  0
   -3.8650   -0.5130   -0.4130 C   0  0  0  0  0  0  0  0  0  0  0  0
   -4.1570    1.6920    0.5400 C   0  0  0  0  0  0  0  0  0  0  0  0
   -5.7530   -0.0810    0.8590 F   0  0  0  0  0  0  0  0  0  0  0  0
    0.5200   -2.1120    1.1300 C   0  0  0  0  0  0  0  0  0  0  0  0
    1.5770   -0.7060   -1.0290 C   0  0  0  0  0  0  0  0  0  0  0  0
   -3.8580   -1.3900    3.3310 C   0  0  0  0  0  0  0  0  0  0  0  0
   -2.8230    0.6860    3.9880 C   0  0  0  0  0  0  0  0  0  0  0  0
    1.3360   -2.7660    0.2080 C   0  0  0  0  0  0  0  0  0  0  0  0
    1.8650   -2.0630   -0.8720 C   0  0  0  0  0  0  0  0  0  0  0  0
   -4.9170   -1.1470    4.2100 C   0  0  0  0  0  0  0  0  0  0  0  0
   -3.8840    0.9270    4.8680 C   0  0  0  0  0  0  0  0  0  0  0  0
   -4.9290    0.0130    4.9780 C   0  0  0  0  0  0  0  0  0  0  0  0
    0.9410    2.0760    0.1490 H   0  0  0  0  0  0  0  0  0  0  0  0
   -1.8820   -1.6330    1.8190 H   0  0  0  0  0  0  0  0  0  0  0  0
   -2.0750   -0.7980   -1.5800 H   0  0  0  0  0  0  0  0  0  0  0  0
   -2.5960    3.1120    0.1100 H   0  0  0  0  0  0  0  0  0  0  0  0
   -4.2210   -1.5220   -0.5590 H   0  0  0  0  0  0  0  0  0  0  0  0
   -4.7380    2.3850    1.1300 H   0  0  0  0  0  0  0  0  0  0  0  0
    0.1110   -2.6580    1.9680 H   0  0  0  0  0  0  0  0  0  0  0  0
    1.9850   -0.1670   -1.8710 H   0  0  0  0  0  0  0  0  0  0  0  0
   -3.8540   -2.2920    2.7370 H   0  0  0  0  0  0  0  0  0  0  0  0
   -2.0180    1.4010    3.9080 H   0  0  0  0  0  0  0  0  0  0  0  0
    1.5580   -3.8160    0.3310 H   0  0  0  0  0  0  0  0  0  0  0  0
    2.4980   -2.5670   -1.5870 H   0  0  0  0  0  0  0  0  0  0  0  0
   -5.7250   -1.8590    4.2930 H   0  0  0  0  0  0  0  0  0  0  0  0
   -3.8930    1.8270    5.4650 H   0  0  0  0  0  0  0  0  0  0  0  0
   -5.7460    0.2040    5.6580 H   0  0  0  0  0  0  0  0  0  0  0  0
  1  3  1  0  0  0  0
  1  6  1  0  0  0  0
  1  8  2  0  0  0  0
  1  9  2  0  0  0  0
  2  4  1  0  0  0  0
  2  7  1  0  0  0  0
  2 10  2  0  0  0  0
  3  5  1  0  0  0  0
  3 27  1  0  0  0  0
  4  5  2  0  0  0  0
  4 18  1  0  0  0  0
  5 19  1  0  0  0  0
  6 11  2  0  0  0  0
  6 12  1  0  0  0  0
  7 13  1  0  0  0  0
  7 28  1  0  0  0  0
 11 15  1  0  0  0  0
 11 29  1  0  0  0  0
 12 16  2  0  0  0  0
 12 30  1  0  0  0  0
 13 20  2  0  0  0  0
 13 21  1  0  0  0  0
 14 15  2  0  0  0  0
 14 16  1  0  0  0  0
 14 17  1  0  0  0  0
 15 31  1  0  0  0  0
 16 32  1  0  0  0  0
 18 22  2  0  0  0  0
 18 33  1  0  0  0  0
 19 23  2  0  0  0  0
 19 34  1  0  0  0  0
 20 24  1  0  0  0  0
 20 35  1  0  0  0  0
 21 25  2  0  0  0  0
 21 36  1  0  0  0  0
 22 23  1  0  0  0  0
 22 37  1  0  0  0  0
 23 38  1  0  0  0  0
 24 26  2  0  0  0  0
 24 39  1  0  0  0  0
 25 26  1  0  0  0  0
 25 40  1  0  0  0  0
 26 41  1  0  0  0  0
M  END
>  <$CLUSTER>
958

>  <INDEX>
411247

$$$$
Chem T&I AMSACS-17229
 OpenBabel04062209303D

 35 37  0  0  0  0  0  0  0  0999 V2000
   -1.1650   -0.7570    1.5370 S   0  0  0  0  0  0  0  0  0  0  0  0
   -0.3670    0.1270    0.2380 C   0  0  0  0  0  0  0  0  0  0  0  0
    0.6070   -0.4650   -0.6080 C   0  0  0  0  0  0  0  0  0  0  0  0
    0.1680   -1.1970    2.5020 N   0  0  0  0  0  0  0  0  0  0  0  0
    1.0620   -1.7280   -0.5670 N   0  0  0  0  0  0  0  0  0  0  0  0
    2.1840   -1.8760   -1.7800 S   0  0  0  0  0  0  0  0  0  0  0  0
    1.2530    0.3500   -1.7060 C   0  0  0  0  0  0  0  0  0  0  0  0
    1.0730   -2.2150    2.0210 C   0  0  0  0  0  0  0  0  0  0  0  0
    2.1520   -0.3450   -2.4200 N   0  0  0  0  0  0  0  0  0  0  0  0
   -1.9760    0.1810    2.2880 O   0  0  0  0  0  0  0  0  0  0  0  0
   -1.7480   -1.9410    0.9400 O   0  0  0  0  0  0  0  0  0  0  0  0
   -0.6830    1.4750   -0.0070 C   0  0  0  0  0  0  0  0  0  0  0  0
    2.3690   -1.8700    1.5990 C   0  0  0  0  0  0  0  0  0  0  0  0
   -0.0720    2.2280   -1.0370 C   0  0  0  0  0  0  0  0  0  0  0  0
    0.9000    1.7060   -1.9080 C   0  0  0  0  0  0  0  0  0  0  0  0
    0.6340   -3.5410    1.9500 C   0  0  0  0  0  0  0  0  0  0  0  0
    3.2120   -2.8720    1.1080 C   0  0  0  0  0  0  0  0  0  0  0  0
    1.4840   -4.5300    1.4590 C   0  0  0  0  0  0  0  0  0  0  0  0
    2.7690   -4.1960    1.0380 C   0  0  0  0  0  0  0  0  0  0  0  0
    2.7040   -0.5440    1.7090 O   0  0  0  0  0  0  0  0  0  0  0  0
    1.0110   -5.9450    1.3860 C   0  0  0  0  0  0  0  0  0  0  0  0
    3.9970   -0.1610    1.2560 C   0  0  0  0  0  0  0  0  0  0  0  0
    0.3230   -0.7530    3.3960 H   0  0  0  0  0  0  0  0  0  0  0  0
   -1.4220    1.9550    0.6170 H   0  0  0  0  0  0  0  0  0  0  0  0
   -0.3680    3.2590   -1.1610 H   0  0  0  0  0  0  0  0  0  0  0  0
    1.3510    2.3040   -2.6860 H   0  0  0  0  0  0  0  0  0  0  0  0
   -0.3630   -3.7980    2.2760 H   0  0  0  0  0  0  0  0  0  0  0  0
    4.2100   -2.6220    0.7810 H   0  0  0  0  0  0  0  0  0  0  0  0
    3.4260   -4.9630    0.6560 H   0  0  0  0  0  0  0  0  0  0  0  0
   -0.0120   -6.0060    1.7570 H   0  0  0  0  0  0  0  0  0  0  0  0
    1.6570   -6.5760    1.9960 H   0  0  0  0  0  0  0  0  0  0  0  0
    1.0430   -6.2860    0.3510 H   0  0  0  0  0  0  0  0  0  0  0  0
    4.1300    0.9110    1.4010 H   0  0  0  0  0  0  0  0  0  0  0  0
    4.0960   -0.4000    0.1970 H   0  0  0  0  0  0  0  0  0  0  0  0
    4.7550   -0.7010    1.8230 H   0  0  0  0  0  0  0  0  0  0  0  0
  1  2  1  0  0  0  0
  1  4  1  0  0  0  0
  1 10  2  0  0  0  0
  1 11  2  0  0  0  0
  2  3  1  0  0  0  0
  2 12  2  0  0  0  0
  3  5  2  0  0  0  0
  3  7  1  0  0  0  0
  4  8  1  0  0  0  0
  4 23  1  0  0  0  0
  5  6  1  0  0  0  0
  6  9  1  0  0  0  0
  7  9  2  0  0  0  0
  7 15  1  0  0  0  0
  8 13  2  0  0  0  0
  8 16  1  0  0  0  0
 12 14  1  0  0  0  0
 12 24  1  0  0  0  0
 13 17  1  0  0  0  0
 13 20  1  0  0  0  0
 14 15  2  0  0  0  0
 14 25  1  0  0  0  0
 15 26  1  0  0  0  0
 16 18  2  0  0  0  0
 16 27  1  0  0  0  0
 17 19  2  0  0  0  0
 17 28  1  0  0  0  0
 18 19  1  0  0  0  0
 18 21  1  0  0  0  0
 19 29  1  0  0  0  0
 20 22  1  0  0  0  0
 21 30  1  0  0  0  0
 21 31  1  0  0  0  0
 21 32  1  0  0  0  0
 22 33  1  0  0  0  0
 22 34  1  0  0  0  0
 22 35  1  0  0  0  0
M  END
>  <$CLUSTER>
797

>  <INDEX>
520507

$$$$
Chemical Block A3692/0156694
 OpenBabel04062209303D

 41 43  0  0  0  0  0  0  0  0999 V2000
   -0.4870    0.3480   -1.6950 C   0  0  0  0  0  0  0  0  0  0  0  0
   -1.3510    1.1750   -1.0910 N   0  0  0  0  0  0  0  0  0  0  0  0
    0.3470   -0.5160   -1.0950 N   0  0  0  0  0  0  0  0  0  0  0  0
   -0.5520    0.2660    0.9770 N   0  0  0  0  0  0  0  0  0  0  0  0
   -1.3290    1.0810    0.2450 C   0  0  0  0  0  0  0  0  0  0  0  0
    8.0790    1.6320    2.8230 N   0  0  0  0  0  0  0  0  0  0  0  0
    0.2670   -0.5180    0.2500 C   0  0  0  0  0  0  0  0  0  0  0  0
    9.5450    3.2860    2.8350 N   0  0  0  0  0  0  0  0  0  0  0  0
   10.1070    2.2150    3.4800 N   0  0  0  0  0  0  0  0  0  0  0  0
    3.3550   -1.4600    1.9420 C   0  0  0  0  0  0  0  0  0  0  0  0
    9.2280    1.2390    3.4670 C   0  0  0  0  0  0  0  0  0  0  0  0
    8.3410    2.9290    2.4490 C   0  0  0  0  0  0  0  0  0  0  0  0
   -0.4240    0.3640   -3.1020 N   0  0  0  0  0  0  0  0  0  0  0  0
    6.8890    0.8700    2.5950 C   0  0  0  0  0  0  0  0  0  0  0  0
    4.5710   -0.6080    2.1480 C   0  0  0  0  0  0  0  0  0  0  0  0
    2.3990   -0.7530    1.2630 O   0  0  0  0  0  0  0  0  0  0  0  0
    3.2530   -2.6150    2.3310 O   0  0  0  0  0  0  0  0  0  0  0  0
    5.8140    1.4400    1.9160 C   0  0  0  0  0  0  0  0  0  0  0  0
    6.8050   -0.4430    3.0510 C   0  0  0  0  0  0  0  0  0  0  0  0
    4.6500    0.6980    1.6920 C   0  0  0  0  0  0  0  0  0  0  0  0
    5.6460   -1.1890    2.8310 C   0  0  0  0  0  0  0  0  0  0  0  0
   -2.2060    1.9230    0.8550 N   0  0  0  0  0  0  0  0  0  0  0  0
    1.1850   -1.4370    0.9950 C   0  0  0  0  0  0  0  0  0  0  0  0
   -1.2350    1.3070   -3.8760 C   0  0  0  0  0  0  0  0  0  0  0  0
    0.4200   -0.5450   -3.8730 C   0  0  0  0  0  0  0  0  0  0  0  0
    9.3860    0.2630    3.9020 H   0  0  0  0  0  0  0  0  0  0  0  0
    7.6530    3.5660    1.9130 H   0  0  0  0  0  0  0  0  0  0  0  0
    5.8800    2.4580    1.5620 H   0  0  0  0  0  0  0  0  0  0  0  0
    7.6390   -0.8850    3.5760 H   0  0  0  0  0  0  0  0  0  0  0  0
    3.8170    1.1410    1.1660 H   0  0  0  0  0  0  0  0  0  0  0  0
    5.5790   -2.2070    3.1850 H   0  0  0  0  0  0  0  0  0  0  0  0
   -2.2750    1.9370    1.8630 H   0  0  0  0  0  0  0  0  0  0  0  0
   -2.7880    2.5340    0.3000 H   0  0  0  0  0  0  0  0  0  0  0  0
    1.3880   -2.3210    0.3900 H   0  0  0  0  0  0  0  0  0  0  0  0
    0.7190   -1.7380    1.9330 H   0  0  0  0  0  0  0  0  0  0  0  0
   -1.8180    1.9280   -3.1960 H   0  0  0  0  0  0  0  0  0  0  0  0
   -1.9080    0.7540   -4.5310 H   0  0  0  0  0  0  0  0  0  0  0  0
   -0.5820    1.9400   -4.4770 H   0  0  0  0  0  0  0  0  0  0  0  0
    0.9720   -1.1940   -3.1930 H   0  0  0  0  0  0  0  0  0  0  0  0
    1.1220    0.0330   -4.4740 H   0  0  0  0  0  0  0  0  0  0  0  0
   -0.2040   -1.1530   -4.5280 H   0  0  0  0  0  0  0  0  0  0  0  0
  1  2  2  0  0  0  0
  1  3  1  0  0  0  0
  1 13  1  0  0  0  0
  2  5  1  0  0  0  0
  3  7  2  0  0  0  0
  4  5  2  0  0  0  0
  4  7  1  0  0  0  0
  5 22  1  0  0  0  0
  6 11  1  0  0  0  0
  6 12  1  0  0  0  0
  6 14  1  0  0  0  0
  7 23  1  0  0  0  0
  8  9  1  0  0  0  0
  8 12  2  0  0  0  0
  9 11  2  0  0  0  0
 10 15  1  0  0  0  0
 10 16  1  0  0  0  0
 10 17  2  0  0  0  0
 11 26  1  0  0  0  0
 12 27  1  0  0  0  0
 13 24  1  0  0  0  0
 13 25  1  0  0  0  0
 14 18  2  0  0  0  0
 14 19  1  0  0  0  0
 15 20  2  0  0  0  0
 15 21  1  0  0  0  0
 16 23  1  0  0  0  0
 18 20  1  0  0  0  0
 18 28  1  0  0  0  0
 19 21  2  0  0  0  0
 19 29  1  0  0  0  0
 20 30  1  0  0  0  0
 21 31  1  0  0  0  0
 22 32  1  0  0  0  0
 22 33  1  0  0  0  0
 23 34  1  0  0  0  0
 23 35  1  0  0  0  0
 24 36  1  0  0  0  0
 24 37  1  0  0  0  0
 24 38  1  0  0  0  0
 25 39  1  0  0  0  0
 25 40  1  0  0  0  0
 25 41  1  0  0  0  0
M  END
>  <$CLUSTER>
187

>  <INDEX>
118465

$$$$
Life Chemicals F0778-0231
 OpenBabel04062209303D

 48 51  0  0  0  0  0  0  0  0999 V2000
    0.9100    0.0670    0.2250 C   0  0  0  0  0  0  0  0  0  0  0  0
   -0.0990   -0.3270   -0.6770 N   0  0  0  0  0  0  0  0  0  0  0  0
    0.4240   -0.9910   -1.7530 N   0  0  0  0  0  0  0  0  0  0  0  0
    2.0460   -0.5880   -0.2020 C   0  0  0  0  0  0  0  0  0  0  0  0
    0.6790    0.9830    1.2390 N   0  0  0  0  0  0  0  0  0  0  0  0
    1.6850   -1.1980   -1.4080 C   0  0  0  0  0  0  0  0  0  0  0  0
   -5.7130    0.3120   -0.4580 N   0  3  0  0  0  0  0  0  0  0  0  0
    1.5840    1.3030    2.2380 C   0  0  0  0  0  0  0  0  0  0  0  0
    1.0360    2.3780    3.1440 C   0  0  0  0  0  0  0  0  0  0  0  0
   -1.5120   -0.1500   -0.6080 C   0  0  0  0  0  0  0  0  0  0  0  0
   -4.3020    0.1400   -0.5320 C   0  0  0  0  0  0  0  0  0  0  0  0
    2.0110    3.1510    3.8510 C   0  0  0  0  0  0  0  0  0  0  0  0
    1.5960    4.1590    4.7240 C   0  0  0  0  0  0  0  0  0  0  0  0
    4.2420   -1.7180   -1.1610 S   0  0  0  0  0  0  0  0  0  0  0  0
   -6.2780    0.4870    0.6360 O   0  5  0  0  0  0  0  0  0  0  0  0
   -6.3140    0.2720   -1.5440 O   0  0  0  0  0  0  0  0  0  0  0  0
    2.6860    0.8090    2.4490 O   0  0  0  0  0  0  0  0  0  0  0  0
    0.2370    4.3970    4.9180 C   0  0  0  0  0  0  0  0  0  0  0  0
    3.4610   -0.7100    0.1940 C   0  0  0  0  0  0  0  0  0  0  0  0
   -0.2980    2.6170    3.3670 C   0  0  0  0  0  0  0  0  0  0  0  0
   -2.2680   -0.2110   -1.7900 C   0  0  0  0  0  0  0  0  0  0  0  0
   -2.1720    0.0220    0.6140 C   0  0  0  0  0  0  0  0  0  0  0  0
   -3.5610    0.1730    0.6480 C   0  0  0  0  0  0  0  0  0  0  0  0
   -3.6550   -0.0570   -1.7490 C   0  0  0  0  0  0  0  0  0  0  0  0
   -0.7080    3.6260    4.2430 C   0  0  0  0  0  0  0  0  0  0  0  0
    2.7060   -1.9220   -2.1790 C   0  0  0  0  0  0  0  0  0  0  0  0
    2.4640    4.9590    5.4300 O   0  0  0  0  0  0  0  0  0  0  0  0
   -0.0740    5.4050    5.8060 O   0  0  0  0  0  0  0  0  0  0  0  0
    3.8580    4.7410    5.2480 C   0  0  0  0  0  0  0  0  0  0  0  0
   -1.4510    5.6760    6.0350 C   0  0  0  0  0  0  0  0  0  0  0  0
   -0.2150    1.4520    1.2510 H   0  0  0  0  0  0  0  0  0  0  0  0
    3.0640    2.9560    3.7100 H   0  0  0  0  0  0  0  0  0  0  0  0
    3.5500   -1.2200    1.1530 H   0  0  0  0  0  0  0  0  0  0  0  0
    3.9280    0.2730    0.2610 H   0  0  0  0  0  0  0  0  0  0  0  0
   -1.0390    2.0180    2.8590 H   0  0  0  0  0  0  0  0  0  0  0  0
   -1.7740   -0.3780   -2.7360 H   0  0  0  0  0  0  0  0  0  0  0  0
   -1.6060    0.0380    1.5340 H   0  0  0  0  0  0  0  0  0  0  0  0
   -4.0630    0.3160    1.5940 H   0  0  0  0  0  0  0  0  0  0  0  0
   -4.2280   -0.0910   -2.6640 H   0  0  0  0  0  0  0  0  0  0  0  0
   -1.7610    3.8090    4.3980 H   0  0  0  0  0  0  0  0  0  0  0  0
    2.8330   -1.4810   -3.1680 H   0  0  0  0  0  0  0  0  0  0  0  0
    2.4430   -2.9750   -2.2810 H   0  0  0  0  0  0  0  0  0  0  0  0
    4.4190    5.4420    5.8660 H   0  0  0  0  0  0  0  0  0  0  0  0
    4.1160    4.8930    4.2000 H   0  0  0  0  0  0  0  0  0  0  0  0
    4.1070    3.7210    5.5390 H   0  0  0  0  0  0  0  0  0  0  0  0
   -1.5460    6.4900    6.7530 H   0  0  0  0  0  0  0  0  0  0  0  0
   -1.9360    4.7840    6.4310 H   0  0  0  0  0  0  0  0  0  0  0  0
   -1.9260    5.9620    5.0970 H   0  0  0  0  0  0  0  0  0  0  0  0
  1  2  1  0  0  0  0
  1  4  2  0  0  0  0
  1  5  1  0  0  0  0
  2  3  1  0  0  0  0
  2 10  1  0  0  0  0
  3  6  2  0  0  0  0
  4  6  1  0  0  0  0
  4 19  1  0  0  0  0
  5  8  1  0  0  0  0
  5 31  1  0  0  0  0
  6 26  1  0  0  0  0
  7 11  1  0  0  0  0
  7 15  1  0  0  0  0
  7 16  2  0  0  0  0
  8  9  1  0  0  0  0
  8 17  2  0  0  0  0
  9 12  1  0  0  0  0
  9 20  2  0  0  0  0
 10 21  1  0  0  0  0
 10 22  2  0  0  0  0
 11 23  2  0  0  0  0
 11 24  1  0  0  0  0
 12 13  2  0  0  0  0
 12 32  1  0  0  0  0
 13 18  1  0  0  0  0
 13 27  1  0  0  0  0
 14 19  1  0  0  0  0
 14 26  1  0  0  0  0
 18 25  2  0  0  0  0
 18 28  1  0  0  0  0
 19 33  1  0  0  0  0
 19 34  1  0  0  0  0
 20 25  1  0  0  0  0
 20 35  1  0  0  0  0
 21 24  2  0  0  0  0
 21 36  1  0  0  0  0
 22 23  1  0  0  0  0
 22 37  1  0  0  0  0
 23 38  1  0  0  0  0
 24 39  1  0  0  0  0
 25 40  1  0  0  0  0
 26 41  1  0  0  0  0
 26 42  1  0  0  0  0
 27 29  1  0  0  0  0
 28 30  1  0  0  0  0
 29 43  1  0  0  0  0
 29 44  1  0  0  0  0
 29 45  1  0  0  0  0
 30 46  1  0  0  0  0
 30 47  1  0  0  0  0
 30 48  1  0  0  0  0
M  CHG  2   7   1  15  -1
M  END
>  <$CLUSTER>
440

>  <INDEX>
289437

$$$$
Princeton Biomolecular OSSK_459353
 OpenBabel04062209303D

 42 44  0  0  0  0  0  0  0  0999 V2000
    0.1100   -0.8950    0.9020 C   0  0  0  0  0  0  0  0  0  0  0  0
   -1.1910   -0.7280    0.6410 C   0  0  0  0  0  0  0  0  0  0  0  0
    1.1110   -0.0930    0.1580 C   0  0  0  0  0  0  0  0  0  0  0  0
   -1.7070    0.2150   -0.3530 C   0  0  0  0  0  0  0  0  0  0  0  0
    0.6190    0.8120   -0.7960 C   0  0  0  0  0  0  0  0  0  0  0  0
   -0.7620    0.9590   -1.0420 O   0  0  0  0  0  0  0  0  0  0  0  0
    2.5150   -0.1550    0.3190 C   0  0  0  0  0  0  0  0  0  0  0  0
   -2.3460   -1.5630    1.3260 C   0  0  0  0  0  0  0  0  0  0  0  0
   -2.9310   -0.8350    2.5280 C   0  0  0  0  0  0  0  0  0  0  0  0
    3.0100   -1.0350    1.2470 O   0  0  0  0  0  0  0  0  0  0  0  0
    1.4450    1.6300   -1.5680 C   0  0  0  0  0  0  0  0  0  0  0  0
    3.3500    0.6700   -0.4600 C   0  0  0  0  0  0  0  0  0  0  0  0
   -2.9090    0.3350   -0.5600 O   0  0  0  0  0  0  0  0  0  0  0  0
    2.8170    1.5550   -1.3960 C   0  0  0  0  0  0  0  0  0  0  0  0
   -2.4810    0.2850    2.8520 O   0  0  0  0  0  0  0  0  0  0  0  0
    0.5170   -1.8950    1.9460 C   0  0  0  0  0  0  0  0  0  0  0  0
    4.4210   -1.1190    1.4320 C   0  0  0  0  0  0  0  0  0  0  0  0
    4.8610   -3.5010    2.1590 C   0  0  0  0  0  0  0  0  0  0  0  0
    5.0970   -4.4580    3.1480 C   0  0  0  0  0  0  0  0  0  0  0  0
   -3.8690   -1.5130    3.0850 O   0  5  0  0  0  0  0  0  0  0  0  0
    4.6870   -2.1580    2.5060 C   0  0  0  0  0  0  0  0  0  0  0  0
    5.2540   -5.7150    2.7320 F   0  0  0  0  0  0  0  0  0  0  0  0
    4.9790   -2.7400    4.8400 C   0  0  0  0  0  0  0  0  0  0  0  0
    3.7220    2.4200   -2.2110 C   0  0  0  0  0  0  0  0  0  0  0  0
    5.1570   -4.0770    4.4880 C   0  0  0  0  0  0  0  0  0  0  0  0
    4.7430   -1.7820    3.8520 C   0  0  0  0  0  0  0  0  0  0  0  0
   -1.9420   -2.5200    1.6550 H   0  0  0  0  0  0  0  0  0  0  0  0
   -3.1380   -1.7340    0.5970 H   0  0  0  0  0  0  0  0  0  0  0  0
    1.0200    2.3120   -2.2900 H   0  0  0  0  0  0  0  0  0  0  0  0
    4.4210    0.6160   -0.3300 H   0  0  0  0  0  0  0  0  0  0  0  0
    1.6030   -1.9070    2.0340 H   0  0  0  0  0  0  0  0  0  0  0  0
    0.1650   -2.8850    1.6570 H   0  0  0  0  0  0  0  0  0  0  0  0
    0.0780   -1.6190    2.9050 H   0  0  0  0  0  0  0  0  0  0  0  0
    4.8120   -0.1520    1.7470 H   0  0  0  0  0  0  0  0  0  0  0  0
    4.9000   -1.4180    0.5000 H   0  0  0  0  0  0  0  0  0  0  0  0
    4.8130   -3.7990    1.1220 H   0  0  0  0  0  0  0  0  0  0  0  0
    5.0240   -2.4450    5.8780 H   0  0  0  0  0  0  0  0  0  0  0  0
    3.1260    3.0390   -2.8810 H   0  0  0  0  0  0  0  0  0  0  0  0
    4.3940    1.7930   -2.7970 H   0  0  0  0  0  0  0  0  0  0  0  0
    4.3060    3.0590   -1.5490 H   0  0  0  0  0  0  0  0  0  0  0  0
    5.3410   -4.8170    5.2530 H   0  0  0  0  0  0  0  0  0  0  0  0
    4.6030   -0.7470    4.1280 H   0  0  0  0  0  0  0  0  0  0  0  0
  1  2  2  0  0  0  0
  1  3  1  0  0  0  0
  1 16  1  0  0  0  0
  2  4  1  0  0  0  0
  2  8  1  0  0  0  0
  3  5  2  0  0  0  0
  3  7  1  0  0  0  0
  4  6  1  0  0  0  0
  4 13  2  0  0  0  0
  5  6  1  0  0  0  0
  5 11  1  0  0  0  0
  7 10  1  0  0  0  0
  7 12  2  0  0  0  0
  8  9  1  0  0  0  0
  8 27  1  0  0  0  0
  8 28  1  0  0  0  0
  9 15  2  0  0  0  0
  9 20  1  0  0  0  0
 10 17  1  0  0  0  0
 11 14  2  0  0  0  0
 11 29  1  0  0  0  0
 12 14  1  0  0  0  0
 12 30  1  0  0  0  0
 14 24  1  0  0  0  0
 16 31  1  0  0  0  0
 16 32  1  0  0  0  0
 16 33  1  0  0  0  0
 17 21  1  0  0  0  0
 17 34  1  0  0  0  0
 17 35  1  0  0  0  0
 18 19  2  0  0  0  0
 18 21  1  0  0  0  0
 18 36  1  0  0  0  0
 19 22  1  0  0  0  0
 19 25  1  0  0  0  0
 21 26  2  0  0  0  0
 23 25  2  0  0  0  0
 23 26  1  0  0  0  0
 23 37  1  0  0  0  0
 24 38  1  0  0  0  0
 24 39  1  0  0  0  0
 24 40  1  0  0  0  0
 25 41  1  0  0  0  0
 26 42  1  0  0  0  0
M  CHG  1  20  -1
M  END
>  <$CLUSTER>
897

>  <INDEX>
584174

$$$$
Toslab 44086
 OpenBabel04062209303D

 51 53  0  0  1  0  0  0  0  0999 V2000
   -0.1530   -0.7930   -0.6690 C   0  0  0  0  0  0  0  0  0  0  0  0
    0.5800    0.2920   -0.2280 N   0  0  0  0  0  0  0  0  0  0  0  0
    0.1670   -1.0100   -1.9320 N   0  0  0  0  0  0  0  0  0  0  0  0
    1.3580    0.7240   -1.2450 N   0  0  0  0  0  0  0  0  0  0  0  0
    1.0970   -0.0690   -2.2690 N   0  0  0  0  0  0  0  0  0  0  0  0
   -1.1380   -1.6010    0.1020 C   0  0  2  0  0  0  0  0  0  0  0  0
   -0.9130   -3.0680   -0.0970 N   0  3  0  0  0  0  0  0  0  0  0  0
    0.6350    0.9730    1.0750 C   0  0  0  0  0  0  0  0  0  0  0  0
   -2.5670   -1.2940   -0.3370 C   0  0  0  0  0  0  0  0  0  0  0  0
   -3.5810   -1.0860    0.6680 C   0  0  0  0  0  0  0  0  0  0  0  0
   -3.0030   -1.2300   -1.6700 C   0  0  0  0  0  0  0  0  0  0  0  0
   -4.3280   -0.9560   -2.0110 C   0  0  0  0  0  0  0  0  0  0  0  0
   -4.9050   -0.8120    0.3240 C   0  0  0  0  0  0  0  0  0  0  0  0
   -5.2780   -0.7460   -1.0170 C   0  0  0  0  0  0  0  0  0  0  0  0
   -0.8180   -3.6140   -1.5000 C   0  0  0  0  0  0  0  0  0  0  0  0
    0.2680   -3.6010    0.7360 C   0  0  0  0  0  0  0  0  0  0  0  0
    1.2740    0.0480    2.1270 C   0  0  0  0  0  0  0  0  0  0  0  0
   -0.7670    1.4240    1.5300 C   0  0  0  0  0  0  0  0  0  0  0  0
    1.5080    2.2550    1.0070 C   0  0  0  0  0  0  0  0  0  0  0  0
   -6.6950   -0.4480   -1.3820 C   0  0  0  0  0  0  0  0  0  0  0  0
    0.3710   -5.1040    0.6870 C   0  0  0  0  0  0  0  0  0  0  0  0
   -0.7360   -5.0770   -1.5750 C   0  0  0  0  0  0  0  0  0  0  0  0
    0.4310   -5.6100   -0.7510 C   0  0  0  0  0  0  0  0  0  0  0  0
   -0.9990   -1.3370    1.1500 H   0  0  0  0  0  0  0  0  0  0  0  0
   -1.7980   -3.4220    0.2370 H   0  0  0  0  0  0  0  0  0  0  0  0
   -3.3090   -1.1440    1.7110 H   0  0  0  0  0  0  0  0  0  0  0  0
   -2.2870   -1.3990   -2.4600 H   0  0  0  0  0  0  0  0  0  0  0  0
   -4.6170   -0.9070   -3.0500 H   0  0  0  0  0  0  0  0  0  0  0  0
   -5.6410   -0.6510    1.0980 H   0  0  0  0  0  0  0  0  0  0  0  0
    0.0740   -3.1980   -1.9680 H   0  0  0  0  0  0  0  0  0  0  0  0
   -1.7020   -3.2930   -2.0520 H   0  0  0  0  0  0  0  0  0  0  0  0
    0.1330   -3.2930    1.7730 H   0  0  0  0  0  0  0  0  0  0  0  0
    1.1920   -3.1740    0.3470 H   0  0  0  0  0  0  0  0  0  0  0  0
    0.6900   -0.8690    2.2070 H   0  0  0  0  0  0  0  0  0  0  0  0
    1.2920    0.5530    3.0930 H   0  0  0  0  0  0  0  0  0  0  0  0
    2.2930   -0.1960    1.8260 H   0  0  0  0  0  0  0  0  0  0  0  0
   -1.4240    0.5570    1.5950 H   0  0  0  0  0  0  0  0  0  0  0  0
   -1.1720    2.1340    0.8090 H   0  0  0  0  0  0  0  0  0  0  0  0
   -0.6960    1.9000    2.5080 H   0  0  0  0  0  0  0  0  0  0  0  0
    2.5160    1.9910    0.6880 H   0  0  0  0  0  0  0  0  0  0  0  0
    1.5480    2.7200    1.9920 H   0  0  0  0  0  0  0  0  0  0  0  0
    1.0720    2.9540    0.2930 H   0  0  0  0  0  0  0  0  0  0  0  0
   -6.7960   -0.4370   -2.4670 H   0  0  0  0  0  0  0  0  0  0  0  0
   -6.9760    0.5260   -0.9810 H   0  0  0  0  0  0  0  0  0  0  0  0
   -7.3470   -1.2150   -0.9640 H   0  0  0  0  0  0  0  0  0  0  0  0
   -0.5010   -5.5360    1.1790 H   0  0  0  0  0  0  0  0  0  0  0  0
    1.2750   -5.4150    1.2110 H   0  0  0  0  0  0  0  0  0  0  0  0
   -0.6000   -5.3720   -2.6150 H   0  0  0  0  0  0  0  0  0  0  0  0
   -1.6640   -5.5040   -1.1950 H   0  0  0  0  0  0  0  0  0  0  0  0
    0.3940   -6.6990   -0.7460 H   0  0  0  0  0  0  0  0  0  0  0  0
    1.3660   -5.2800   -1.2050 H   0  0  0  0  0  0  0  0  0  0  0  0
  1  2  1  0  0  0  0
  1  3  2  0  0  0  0
  1  6  1  0  0  0  0
  2  4  1  0  0  0  0
  2  8  1  0  0  0  0
  3  5  1  0  0  0  0
  4  5  2  0  0  0  0
  6  7  1  0  0  0  0
  6  9  1  0  0  0  0
  6 24  1  1  0  0  0
  7 15  1  0  0  0  0
  7 16  1  0  0  0  0
  7 25  1  0  0  0  0
  8 17  1  0  0  0  0
  8 18  1  0  0  0  0
  8 19  1  0  0  0  0
  9 10  1  0  0  0  0
  9 11  2  0  0  0  0
 10 13  2  0  0  0  0
 10 26  1  0  0  0  0
 11 12  1  0  0  0  0
 11 27  1  0  0  0  0
 12 14  2  0  0  0  0
 12 28  1  0  0  0  0
 13 14  1  0  0  0  0
 13 29  1  0  0  0  0
 14 20  1  0  0  0  0
 15 22  1  0  0  0  0
 15 30  1  0  0  0  0
 15 31  1  0  0  0  0
 16 21  1  0  0  0  0
 16 32  1  0  0  0  0
 16 33  1  0  0  0  0
 17 34  1  0  0  0  0
 17 35  1  0  0  0  0
 17 36  1  0  0  0  0
 18 37  1  0  0  0  0
 18 38  1  0  0  0  0
 18 39  1  0  0  0  0
 19 40  1  0  0  0  0
 19 41  1  0  0  0  0
 19 42  1  0  0  0  0
 20 43  1  0  0  0  0
 20 44  1  0  0  0  0
 20 45  1  0  0  0  0
 21 23  1  0  0  0  0
 21 46  1  0  0  0  0
 21 47  1  0  0  0  0
 22 23  1  0  0  0  0
 22 48  1  0  0  0  0
 22 49  1  0  0  0  0
 23 50  1  0  0  0  0
 23 51  1  0  0  0  0
M  CHG  1   7   1
M  END
>  <$CLUSTER>
221

>  <INDEX>
479862

$$$$
Specs AM-900/15051004
 OpenBabel04062209303D

 58 61  0  0  0  0  0  0  0  0999 V2000
    1.6510    0.5890    2.0410 C   0  0  0  0  0  0  0  0  0  0  0  0
    1.1540    0.5370    3.3030 N   0  0  0  0  0  0  0  0  0  0  0  0
    2.9860    0.6260    1.7960 N   0  0  0  0  0  0  0  0  0  0  0  0
    2.0350    0.5220    4.3270 C   0  0  0  0  0  0  0  0  0  0  0  0
    0.8100    0.6040    1.0200 N   0  0  0  0  0  0  0  0  0  0  0  0
    3.3970    0.5570    4.1620 C   0  0  0  0  0  0  0  0  0  0  0  0
    3.8220    0.6090    2.8570 C   0  0  0  0  0  0  0  0  0  0  0  0
    1.4780    0.4670    5.6620 N   0  0  0  0  0  0  0  0  0  0  0  0
    6.1500    0.6380    3.5280 N   0  0  0  0  0  0  0  0  0  0  0  0
    5.2260    0.6500    2.5480 N   0  0  0  0  0  0  0  0  0  0  0  0
    7.3650    0.6790    3.0940 C   0  0  0  0  0  0  0  0  0  0  0  0
    9.7990    0.7190    3.4970 C   0  0  0  0  0  0  0  0  0  0  0  0
    8.5150    0.6730    4.0520 C   0  0  0  0  0  0  0  0  0  0  0  0
   10.9060    0.7160    4.3470 C   0  0  0  0  0  0  0  0  0  0  0  0
    1.2200    0.6590   -0.3840 C   0  0  0  0  0  0  0  0  0  0  0  0
   -0.6470    0.5690    1.1520 C   0  0  0  0  0  0  0  0  0  0  0  0
    0.0320    0.4300    5.8200 C   0  0  0  0  0  0  0  0  0  0  0  0
    2.3250    0.4470    6.8430 C   0  0  0  0  0  0  0  0  0  0  0  0
    9.4390    0.6220    6.2650 C   0  0  0  0  0  0  0  0  0  0  0  0
    8.3270    0.6250    5.4210 C   0  0  0  0  0  0  0  0  0  0  0  0
   10.7260    0.6670    5.7290 C   0  0  0  0  0  0  0  0  0  0  0  0
   12.2870    0.7640    3.7810 C   0  0  0  0  0  0  0  0  0  0  0  0
   -0.3300   -0.8180    6.6560 C   0  0  0  0  0  0  0  0  0  0  0  0
    1.9600   -0.8010    7.6780 C   0  0  0  0  0  0  0  0  0  0  0  0
   -1.2460   -0.6330    0.4240 C   0  0  0  0  0  0  0  0  0  0  0  0
    0.6890   -0.5400   -1.1690 C   0  0  0  0  0  0  0  0  0  0  0  0
   -0.8260   -0.6570   -1.0430 C   0  0  0  0  0  0  0  0  0  0  0  0
    0.4650   -0.9240    7.9540 C   0  0  0  0  0  0  0  0  0  0  0  0
    4.0830    0.5450    4.9960 H   0  0  0  0  0  0  0  0  0  0  0  0
    5.5230    0.6880    1.5830 H   0  0  0  0  0  0  0  0  0  0  0  0
    7.5530    0.7180    2.0310 H   0  0  0  0  0  0  0  0  0  0  0  0
    9.9310    0.7560    2.4260 H   0  0  0  0  0  0  0  0  0  0  0  0
    2.3090    0.6620   -0.4350 H   0  0  0  0  0  0  0  0  0  0  0  0
    0.8330    1.5750   -0.8310 H   0  0  0  0  0  0  0  0  0  0  0  0
   -1.0630    1.4830    0.7280 H   0  0  0  0  0  0  0  0  0  0  0  0
   -0.9060    0.5080    2.2090 H   0  0  0  0  0  0  0  0  0  0  0  0
   -0.4450    0.3700    4.8420 H   0  0  0  0  0  0  0  0  0  0  0  0
   -0.3060    1.3300    6.3340 H   0  0  0  0  0  0  0  0  0  0  0  0
    2.1570    1.3480    7.4330 H   0  0  0  0  0  0  0  0  0  0  0  0
    3.3720    0.3980    6.5450 H   0  0  0  0  0  0  0  0  0  0  0  0
    9.3020    0.5850    7.3360 H   0  0  0  0  0  0  0  0  0  0  0  0
    7.3290    0.5900    5.8330 H   0  0  0  0  0  0  0  0  0  0  0  0
   11.5840    0.6640    6.3850 H   0  0  0  0  0  0  0  0  0  0  0  0
   12.2330    0.7980    2.6930 H   0  0  0  0  0  0  0  0  0  0  0  0
   12.8370   -0.1250    4.0890 H   0  0  0  0  0  0  0  0  0  0  0  0
   12.7990    1.6540    4.1480 H   0  0  0  0  0  0  0  0  0  0  0  0
   -0.1330   -1.7060    6.0560 H   0  0  0  0  0  0  0  0  0  0  0  0
   -1.3910   -0.7740    6.9020 H   0  0  0  0  0  0  0  0  0  0  0  0
    2.4850   -0.7450    8.6320 H   0  0  0  0  0  0  0  0  0  0  0  0
    2.2860   -1.6880    7.1350 H   0  0  0  0  0  0  0  0  0  0  0  0
   -2.3330   -0.5780    0.4810 H   0  0  0  0  0  0  0  0  0  0  0  0
   -0.9030   -1.5480    0.9070 H   0  0  0  0  0  0  0  0  0  0  0  0
    1.1490   -1.4490   -0.7820 H   0  0  0  0  0  0  0  0  0  0  0  0
    0.9500   -0.4200   -2.2210 H   0  0  0  0  0  0  0  0  0  0  0  0
   -1.2940    0.1780   -1.5640 H   0  0  0  0  0  0  0  0  0  0  0  0
   -1.1520   -1.5950   -1.4940 H   0  0  0  0  0  0  0  0  0  0  0  0
    0.2650   -1.8890    8.4190 H   0  0  0  0  0  0  0  0  0  0  0  0
    0.1580   -0.1250    8.6290 H   0  0  0  0  0  0  0  0  0  0  0  0
  1  2  2  0  0  0  0
  1  3  1  0  0  0  0
  1  5  1  0  0  0  0
  2  4  1  0  0  0  0
  3  7  2  0  0  0  0
  4  6  2  0  0  0  0
  4  8  1  0  0  0  0
  5 15  1  0  0  0  0
  5 16  1  0  0  0  0
  6  7  1  0  0  0  0
  6 29  1  0  0  0  0
  7 10  1  0  0  0  0
  8 17  1  0  0  0  0
  8 18  1  0  0  0  0
  9 10  1  0  0  0  0
  9 11  2  0  0  0  0
 10 30  1  0  0  0  0
 11 13  1  0  0  0  0
 11 31  1  0  0  0  0
 12 13  2  0  0  0  0
 12 14  1  0  0  0  0
 12 32  1  0  0  0  0
 13 20  1  0  0  0  0
 14 21  2  0  0  0  0
 14 22  1  0  0  0  0
 15 26  1  0  0  0  0
 15 33  1  0  0  0  0
 15 34  1  0  0  0  0
 16 25  1  0  0  0  0
 16 35  1  0  0  0  0
 16 36  1  0  0  0  0
 17 23  1  0  0  0  0
 17 37  1  0  0  0  0
 17 38  1  0  0  0  0
 18 24  1  0  0  0  0
 18 39  1  0  0  0  0
 18 40  1  0  0  0  0
 19 20  2  0  0  0  0
 19 21  1  0  0  0  0
 19 41  1  0  0  0  0
 20 42  1  0  0  0  0
 21 43  1  0  0  0  0
 22 44  1  0  0  0  0
 22 45  1  0  0  0  0
 22 46  1  0  0  0  0
 23 28  1  0  0  0  0
 23 47  1  0  0  0  0
 23 48  1  0  0  0  0
 24 28  1  0  0  0  0
 24 49  1  0  0  0  0
 24 50  1  0  0  0  0
 25 27  1  0  0  0  0
 25 51  1  0  0  0  0
 25 52  1  0  0  0  0
 26 27  1  0  0  0  0
 26 53  1  0  0  0  0
 26 54  1  0  0  0  0
 27 55  1  0  0  0  0
 27 56  1  0  0  0  0
 28 57  1  0  0  0  0
 28 58  1  0  0  0  0
M  END
>  <$CLUSTER>
508

>  <INDEX>
505362

$$$$
Life Chemicals F2584-0097
 OpenBabel04062209303D

 46 49  0  0  0  0  0  0  0  0999 V2000
   -0.4840    4.3090   -1.7520 S   0  0  0  0  0  0  0  0  0  0  0  0
    0.1200   -1.0510    0.5970 N   0  0  0  0  0  0  0  0  0  0  0  0
   -0.4590   -0.9560    1.8630 C   0  0  0  0  0  0  0  0  0  0  0  0
    0.0320    0.1570   -0.0850 C   0  0  0  0  0  0  0  0  0  0  0  0
   -1.9820    4.2610   -2.4970 N   0  0  0  0  0  0  0  0  0  0  0  0
   -0.6050    1.1080    0.6950 C   0  0  0  0  0  0  0  0  0  0  0  0
   -0.3050    2.6620   -1.0900 C   0  0  0  0  0  0  0  0  0  0  0  0
   -3.1900    4.1640   -1.6890 C   0  0  0  0  0  0  0  0  0  0  0  0
    0.5040    0.3840   -1.3640 C   0  0  0  0  0  0  0  0  0  0  0  0
   -0.9820    0.4890    2.0050 C   0  0  0  0  0  0  0  0  0  0  0  0
   -0.7850    2.3830    0.2000 C   0  0  0  0  0  0  0  0  0  0  0  0
    0.3390    1.6740   -1.8660 C   0  0  0  0  0  0  0  0  0  0  0  0
    0.5150    4.5150   -2.7850 O   0  0  0  0  0  0  0  0  0  0  0  0
   -0.5790    5.2370   -0.6370 O   0  0  0  0  0  0  0  0  0  0  0  0
   -3.9250    2.9690   -1.5990 C   0  0  0  0  0  0  0  0  0  0  0  0
   -0.5490   -1.8220    2.7190 O   0  0  0  0  0  0  0  0  0  0  0  0
   -3.5800    5.2930   -0.9610 C   0  0  0  0  0  0  0  0  0  0  0  0
   -5.0520    2.9270   -0.7700 C   0  0  0  0  0  0  0  0  0  0  0  0
    0.7800   -2.1860   -0.0250 C   0  0  0  0  0  0  0  0  0  0  0  0
   -4.7030    5.2370   -0.1390 C   0  0  0  0  0  0  0  0  0  0  0  0
   -5.4360    4.0570   -0.0440 C   0  0  0  0  0  0  0  0  0  0  0  0
    1.1880   -0.7360   -2.0920 C   0  0  0  0  0  0  0  0  0  0  0  0
   -3.4620    1.9200   -2.3510 O   0  0  0  0  0  0  0  0  0  0  0  0
    0.7230   -2.1060   -1.5580 C   0  0  0  0  0  0  0  0  0  0  0  0
   -5.1200    6.4440    0.6370 C   0  0  0  0  0  0  0  0  0  0  0  0
   -4.1660    0.6880   -2.2510 C   0  0  0  0  0  0  0  0  0  0  0  0
   -2.0480    4.2990   -3.5040 H   0  0  0  0  0  0  0  0  0  0  0  0
   -0.4970    1.0020    2.8360 H   0  0  0  0  0  0  0  0  0  0  0  0
   -2.0620    0.5030    2.1500 H   0  0  0  0  0  0  0  0  0  0  0  0
   -1.2800    3.1430    0.7860 H   0  0  0  0  0  0  0  0  0  0  0  0
    0.7050    1.9180   -2.8520 H   0  0  0  0  0  0  0  0  0  0  0  0
   -3.0110    6.2080   -1.0360 H   0  0  0  0  0  0  0  0  0  0  0  0
   -5.6280    2.0170   -0.6910 H   0  0  0  0  0  0  0  0  0  0  0  0
    0.2870   -3.1030    0.2990 H   0  0  0  0  0  0  0  0  0  0  0  0
    1.8240   -2.2040    0.2890 H   0  0  0  0  0  0  0  0  0  0  0  0
   -6.3060    4.0150    0.5940 H   0  0  0  0  0  0  0  0  0  0  0  0
    2.2650   -0.6460   -1.9530 H   0  0  0  0  0  0  0  0  0  0  0  0
    0.9520   -0.6680   -3.1540 H   0  0  0  0  0  0  0  0  0  0  0  0
   -0.3040   -2.2770   -1.8800 H   0  0  0  0  0  0  0  0  0  0  0  0
    1.3670   -2.8810   -1.9730 H   0  0  0  0  0  0  0  0  0  0  0  0
   -4.4290    7.2630    0.4350 H   0  0  0  0  0  0  0  0  0  0  0  0
   -5.1080    6.2130    1.7020 H   0  0  0  0  0  0  0  0  0  0  0  0
   -6.1270    6.7370    0.3400 H   0  0  0  0  0  0  0  0  0  0  0  0
   -3.6940   -0.0530   -2.8960 H   0  0  0  0  0  0  0  0  0  0  0  0
   -5.2010    0.8340   -2.5620 H   0  0  0  0  0  0  0  0  0  0  0  0
   -4.1420    0.3390   -1.2190 H   0  0  0  0  0  0  0  0  0  0  0  0
  1  5  1  0  0  0  0
  1  7  1  0  0  0  0
  1 13  2  0  0  0  0
  1 14  2  0  0  0  0
  2  3  1  0  0  0  0
  2  4  1  0  0  0  0
  2 19  1  0  0  0  0
  3 10  1  0  0  0  0
  3 16  2  0  0  0  0
  4  6  1  0  0  0  0
  4  9  2  0  0  0  0
  5  8  1  0  0  0  0
  5 27  1  0  0  0  0
  6 10  1  0  0  0  0
  6 11  2  0  0  0  0
  7 11  1  0  0  0  0
  7 12  2  0  0  0  0
  8 15  2  0  0  0  0
  8 17  1  0  0  0  0
  9 12  1  0  0  0  0
  9 22  1  0  0  0  0
 10 28  1  0  0  0  0
 10 29  1  0  0  0  0
 11 30  1  0  0  0  0
 12 31  1  0  0  0  0
 15 18  1  0  0  0  0
 15 23  1  0  0  0  0
 17 20  2  0  0  0  0
 17 32  1  0  0  0  0
 18 21  2  0  0  0  0
 18 33  1  0  0  0  0
 19 24  1  0  0  0  0
 19 34  1  0  0  0  0
 19 35  1  0  0  0  0
 20 21  1  0  0  0  0
 20 25  1  0  0  0  0
 21 36  1  0  0  0  0
 22 24  1  0  0  0  0
 22 37  1  0  0  0  0
 22 38  1  0  0  0  0
 23 26  1  0  0  0  0
 24 39  1  0  0  0  0
 24 40  1  0  0  0  0
 25 41  1  0  0  0  0
 25 42  1  0  0  0  0
 25 43  1  0  0  0  0
 26 44  1  0  0  0  0
 26 45  1  0  0  0  0
 26 46  1  0  0  0  0
M  END
>  <$CLUSTER>
470

>  <INDEX>
309165

$$$$
Asinex ASN 06235439
 OpenBabel04062209303D

 55 57  0  0  0  0  0  0  0  0999 V2000
   -1.4640    2.6350    0.7810 C   0  0  0  0  0  0  0  0  0  0  0  0
   -1.1630    1.3380    0.4970 N   0  0  0  0  0  0  0  0  0  0  0  0
    2.2530   -2.7210   -0.3780 C   0  0  0  0  0  0  0  0  0  0  0  0
   -1.5350    2.9490    2.1220 N   0  0  0  0  0  0  0  0  0  0  0  0
    1.8860   -1.4190   -0.6350 N   0  0  0  0  0  0  0  0  0  0  0  0
   -1.8090    4.1250    2.8160 C   0  0  0  0  0  0  0  0  0  0  0  0
    3.6650   -3.0050   -0.8130 C   0  0  0  0  0  0  0  0  0  0  0  0
   -1.6830    3.4960   -0.0740 O   0  0  0  0  0  0  0  0  0  0  0  0
   -1.1890    0.8160   -0.8750 C   0  0  0  0  0  0  0  0  0  0  0  0
   -0.8030    0.2860    1.4560 C   0  0  0  0  0  0  0  0  0  0  0  0
    1.5510   -3.5750    0.1570 O   0  0  0  0  0  0  0  0  0  0  0  0
    0.5640   -0.8880   -0.2950 C   0  0  0  0  0  0  0  0  0  0  0  0
    0.1530    0.2080   -1.2790 C   0  0  0  0  0  0  0  0  0  0  0  0
    0.5520   -0.3410    1.1330 C   0  0  0  0  0  0  0  0  0  0  0  0
   -2.3730    6.4820    2.9060 C   0  0  0  0  0  0  0  0  0  0  0  0
   -2.0620    5.2560    4.9560 C   0  0  0  0  0  0  0  0  0  0  0  0
   -1.7930    4.1020    4.2180 C   0  0  0  0  0  0  0  0  0  0  0  0
   -2.1010    5.3270    2.1650 C   0  0  0  0  0  0  0  0  0  0  0  0
    4.3130   -4.0860   -0.1420 C   0  0  0  0  0  0  0  0  0  0  0  0
    4.3080   -2.3580   -1.8340 C   0  0  0  0  0  0  0  0  0  0  0  0
   -2.3520    6.4480    4.2980 C   0  0  0  0  0  0  0  0  0  0  0  0
    6.2640   -3.7510   -1.5280 C   0  0  0  0  0  0  0  0  0  0  0  0
    5.6110   -2.7150   -2.1940 C   0  0  0  0  0  0  0  0  0  0  0  0
    5.6140   -4.4370   -0.5040 C   0  0  0  0  0  0  0  0  0  0  0  0
    7.5370   -4.2020   -1.7970 O   0  0  0  0  0  0  0  0  0  0  0  0
   -2.6850    7.7630    2.1980 C   0  0  0  0  0  0  0  0  0  0  0  0
   -2.0370    5.2080    6.4480 C   0  0  0  0  0  0  0  0  0  0  0  0
    8.2490   -3.5410   -2.8370 C   0  0  0  0  0  0  0  0  0  0  0  0
   -1.3500    2.1620    2.7270 H   0  0  0  0  0  0  0  0  0  0  0  0
    2.5560   -0.8050   -1.0760 H   0  0  0  0  0  0  0  0  0  0  0  0
   -1.4260    1.6320   -1.5580 H   0  0  0  0  0  0  0  0  0  0  0  0
   -1.9590    0.0480   -0.9450 H   0  0  0  0  0  0  0  0  0  0  0  0
   -1.5660   -0.4920    1.4290 H   0  0  0  0  0  0  0  0  0  0  0  0
   -0.7610    0.7200    2.4550 H   0  0  0  0  0  0  0  0  0  0  0  0
   -0.1540   -1.7050   -0.3620 H   0  0  0  0  0  0  0  0  0  0  0  0
    0.9130    0.9890   -1.2840 H   0  0  0  0  0  0  0  0  0  0  0  0
    0.0660   -0.2210   -2.2770 H   0  0  0  0  0  0  0  0  0  0  0  0
    0.7450   -1.1560    1.8310 H   0  0  0  0  0  0  0  0  0  0  0  0
    1.3300    0.4160    1.2340 H   0  0  0  0  0  0  0  0  0  0  0  0
   -1.5700    3.1800    4.7330 H   0  0  0  0  0  0  0  0  0  0  0  0
   -2.1170    5.3640    1.0860 H   0  0  0  0  0  0  0  0  0  0  0  0
    3.8000   -4.6270    0.6390 H   0  0  0  0  0  0  0  0  0  0  0  0
    3.8040   -1.5650   -2.3660 H   0  0  0  0  0  0  0  0  0  0  0  0
   -2.5600    7.3430    4.8650 H   0  0  0  0  0  0  0  0  0  0  0  0
    6.1130   -2.1860   -2.9910 H   0  0  0  0  0  0  0  0  0  0  0  0
    6.1180   -5.2420    0.0100 H   0  0  0  0  0  0  0  0  0  0  0  0
   -2.6560    7.5990    1.1210 H   0  0  0  0  0  0  0  0  0  0  0  0
   -1.9470    8.5180    2.4710 H   0  0  0  0  0  0  0  0  0  0  0  0
   -3.6790    8.1050    2.4870 H   0  0  0  0  0  0  0  0  0  0  0  0
   -1.7930    4.1970    6.7750 H   0  0  0  0  0  0  0  0  0  0  0  0
   -3.0150    5.4900    6.8370 H   0  0  0  0  0  0  0  0  0  0  0  0
   -1.2840    5.9020    6.8210 H   0  0  0  0  0  0  0  0  0  0  0  0
    9.2350   -3.9920   -2.9460 H   0  0  0  0  0  0  0  0  0  0  0  0
    8.3580   -2.4850   -2.5890 H   0  0  0  0  0  0  0  0  0  0  0  0
    7.6990   -3.6390   -3.7730 H   0  0  0  0  0  0  0  0  0  0  0  0
  1  2  1  0  0  0  0
  1  4  1  0  0  0  0
  1  8  2  0  0  0  0
  2  9  1  0  0  0  0
  2 10  1  0  0  0  0
  3  5  1  0  0  0  0
  3  7  1  0  0  0  0
  3 11  2  0  0  0  0
  4  6  1  0  0  0  0
  4 29  1  0  0  0  0
  5 12  1  0  0  0  0
  5 30  1  0  0  0  0
  6 17  2  0  0  0  0
  6 18  1  0  0  0  0
  7 19  1  0  0  0  0
  7 20  2  0  0  0  0
  9 13  1  0  0  0  0
  9 31  1  0  0  0  0
  9 32  1  0  0  0  0
 10 14  1  0  0  0  0
 10 33  1  0  0  0  0
 10 34  1  0  0  0  0
 12 13  1  0  0  0  0
 12 14  1  0  0  0  0
 12 35  1  0  0  0  0
 13 36  1  0  0  0  0
 13 37  1  0  0  0  0
 14 38  1  0  0  0  0
 14 39  1  0  0  0  0
 15 18  2  0  0  0  0
 15 21  1  0  0  0  0
 15 26  1  0  0  0  0
 16 17  1  0  0  0  0
 16 21  2  0  0  0  0
 16 27  1  0  0  0  0
 17 40  1  0  0  0  0
 18 41  1  0  0  0  0
 19 24  2  0  0  0  0
 19 42  1  0  0  0  0
 20 23  1  0  0  0  0
 20 43  1  0  0  0  0
 21 44  1  0  0  0  0
 22 23  2  0  0  0  0
 22 24  1  0  0  0  0
 22 25  1  0  0  0  0
 23 45  1  0  0  0  0
 24 46  1  0  0  0  0
 25 28  1  0  0  0  0
 26 47  1  0  0  0  0
 26 48  1  0  0  0  0
 26 49  1  0  0  0  0
 27 50  1  0  0  0  0
 27 51  1  0  0  0  0
 27 52  1  0  0  0  0
 28 53  1  0  0  0  0
 28 54  1  0  0  0  0
 28 55  1  0  0  0  0
M  END
>  <$CLUSTER>
250

>  <INDEX>
156626

$$$$
Specs AA-504/36954121
 OpenBabel04062209303D

 45 48  0  0  0  0  0  0  0  0999 V2000
    0.0630   -0.0440   -0.5090 C   0  0  0  0  0  0  0  0  0  0  0  0
    0.2820    0.1430   -2.1920 S   0  0  0  0  0  0  0  0  0  0  0  0
   -0.0030    1.1300    0.2030 N   0  0  0  0  0  0  0  0  0  0  0  0
   -0.0180   -1.2860   -0.0900 N   0  0  0  0  0  0  0  0  0  0  0  0
    0.0960   -2.1840   -1.1370 N   0  0  0  0  0  0  0  0  0  0  0  0
    0.2580   -1.5700   -2.2900 C   0  0  0  0  0  0  0  0  0  0  0  0
   -0.1790    1.1300    1.5770 C   0  0  0  0  0  0  0  0  0  0  0  0
   -0.2140    2.5310    2.1320 C   0  0  0  0  0  0  0  0  0  0  0  0
    3.5970   -3.1840   -5.2080 C   0  0  0  0  0  0  0  0  0  0  0  0
   -0.2850    0.1500    2.3080 O   0  0  0  0  0  0  0  0  0  0  0  0
    1.8020   -2.4190   -3.8350 O   0  0  0  0  0  0  0  0  0  0  0  0
    2.1970   -3.0490   -5.0090 C   0  0  0  0  0  0  0  0  0  0  0  0
    0.4100   -2.2670   -3.6010 C   0  0  0  0  0  0  0  0  0  0  0  0
   -0.6290    3.6370    1.4330 C   0  0  0  0  0  0  0  0  0  0  0  0
    0.1450    2.6630    3.5070 C   0  0  0  0  0  0  0  0  0  0  0  0
    4.0670   -3.8170   -6.3870 C   0  0  0  0  0  0  0  0  0  0  0  0
   -0.2870    5.0370    3.3770 C   0  0  0  0  0  0  0  0  0  0  0  0
    0.1130    3.9220    4.1100 C   0  0  0  0  0  0  0  0  0  0  0  0
   -0.6600    4.8940    2.0410 C   0  0  0  0  0  0  0  0  0  0  0  0
   -0.2870    6.2150    4.0880 O   0  0  0  0  0  0  0  0  0  0  0  0
    1.7790   -4.1600   -7.1210 C   0  0  0  0  0  0  0  0  0  0  0  0
    1.3030   -3.5390   -5.9680 C   0  0  0  0  0  0  0  0  0  0  0  0
    4.5560   -2.7140   -4.2830 C   0  0  0  0  0  0  0  0  0  0  0  0
    3.1480   -4.2980   -7.3300 C   0  0  0  0  0  0  0  0  0  0  0  0
    5.4480   -3.9600   -6.6030 C   0  0  0  0  0  0  0  0  0  0  0  0
   -0.6920    7.3890    3.3920 C   0  0  0  0  0  0  0  0  0  0  0  0
    5.9250   -2.8630   -4.5130 C   0  0  0  0  0  0  0  0  0  0  0  0
    6.3710   -3.4860   -5.6720 C   0  0  0  0  0  0  0  0  0  0  0  0
    0.0780    2.0100   -0.2850 H   0  0  0  0  0  0  0  0  0  0  0  0
   -0.0400   -1.6710   -4.3950 H   0  0  0  0  0  0  0  0  0  0  0  0
   -0.0710   -3.2440   -3.5630 H   0  0  0  0  0  0  0  0  0  0  0  0
   -0.9350    3.5340    0.4020 H   0  0  0  0  0  0  0  0  0  0  0  0
    0.4400    1.7950    4.0770 H   0  0  0  0  0  0  0  0  0  0  0  0
    0.3990    4.0310    5.1460 H   0  0  0  0  0  0  0  0  0  0  0  0
   -0.9740    5.7580    1.4740 H   0  0  0  0  0  0  0  0  0  0  0  0
    1.0820   -4.5360   -7.8560 H   0  0  0  0  0  0  0  0  0  0  0  0
    0.2390   -3.4350   -5.8140 H   0  0  0  0  0  0  0  0  0  0  0  0
    4.2230   -2.2290   -3.3780 H   0  0  0  0  0  0  0  0  0  0  0  0
    3.5060   -4.7800   -8.2280 H   0  0  0  0  0  0  0  0  0  0  0  0
    5.7990   -4.4440   -7.5030 H   0  0  0  0  0  0  0  0  0  0  0  0
   -0.6470    8.2450    4.0660 H   0  0  0  0  0  0  0  0  0  0  0  0
   -1.7130    7.2640    3.0320 H   0  0  0  0  0  0  0  0  0  0  0  0
   -0.0260    7.5570    2.5450 H   0  0  0  0  0  0  0  0  0  0  0  0
    6.6370   -2.4940   -3.7900 H   0  0  0  0  0  0  0  0  0  0  0  0
    7.4300   -3.6030   -5.8510 H   0  0  0  0  0  0  0  0  0  0  0  0
  1  2  1  0  0  0  0
  1  3  1  0  0  0  0
  1  4  2  0  0  0  0
  2  6  1  0  0  0  0
  3  7  1  0  0  0  0
  3 29  1  0  0  0  0
  4  5  1  0  0  0  0
  5  6  2  0  0  0  0
  6 13  1  0  0  0  0
  7  8  1  0  0  0  0
  7 10  2  0  0  0  0
  8 14  1  0  0  0  0
  8 15  2  0  0  0  0
  9 12  2  0  0  0  0
  9 16  1  0  0  0  0
  9 23  1  0  0  0  0
 11 12  1  0  0  0  0
 11 13  1  0  0  0  0
 12 22  1  0  0  0  0
 13 30  1  0  0  0  0
 13 31  1  0  0  0  0
 14 19  2  0  0  0  0
 14 32  1  0  0  0  0
 15 18  1  0  0  0  0
 15 33  1  0  0  0  0
 16 24  2  0  0  0  0
 16 25  1  0  0  0  0
 17 18  2  0  0  0  0
 17 19  1  0  0  0  0
 17 20  1  0  0  0  0
 18 34  1  0  0  0  0
 19 35  1  0  0  0  0
 20 26  1  0  0  0  0
 21 22  2  0  0  0  0
 21 24  1  0  0  0  0
 21 36  1  0  0  0  0
 22 37  1  0  0  0  0
 23 27  2  0  0  0  0
 23 38  1  0  0  0  0
 24 39  1  0  0  0  0
 25 28  2  0  0  0  0
 25 40  1  0  0  0  0
 26 41  1  0  0  0  0
 26 42  1  0  0  0  0
 26 43  1  0  0  0  0
 27 28  1  0  0  0  0
 27 44  1  0  0  0  0
 28 45  1  0  0  0  0
M  END
>  <$CLUSTER>
744

>  <INDEX>
488231

$$$$
Specs AP-866/42442546
 OpenBabel04062209303D

 39 40  0  0  0  0  0  0  0  0999 V2000
    3.0750    2.5510   -0.3010 S   0  0  0  0  0  0  0  0  0  0  0  0
   -1.7120    0.0990    0.4150 S   0  0  0  0  0  0  0  0  0  0  0  0
    2.1580    1.0310   -0.2030 C   0  0  0  0  0  0  0  0  0  0  0  0
    5.8440   -1.5840    3.2050 C   0  0  0  0  0  0  0  0  0  0  0  0
    0.7880    1.1270    0.0390 C   0  0  0  0  0  0  0  0  0  0  0  0
    3.9540    2.5640    1.1220 N   0  0  0  0  0  0  0  0  0  0  0  0
    0.0180   -0.0360    0.0860 C   0  0  0  0  0  0  0  0  0  0  0  0
    5.9490   -0.4060    2.2830 C   0  0  0  0  0  0  0  0  0  0  0  0
    2.1470    3.6660   -0.2280 O   0  0  0  0  0  0  0  0  0  0  0  0
    4.0080    2.4720   -1.4100 O   0  0  0  0  0  0  0  0  0  0  0  0
   -2.2330   -1.2350    0.6450 O   0  0  0  0  0  0  0  0  0  0  0  0
   -1.8820    1.1380    1.4120 O   0  0  0  0  0  0  0  0  0  0  0  0
    2.7500   -0.2190   -0.3900 C   0  0  0  0  0  0  0  0  0  0  0  0
    5.0430    1.6060    1.2950 C   0  0  0  0  0  0  0  0  0  0  0  0
    4.9100    0.5180    2.1640 C   0  0  0  0  0  0  0  0  0  0  0  0
    0.6010   -1.2900   -0.0930 C   0  0  0  0  0  0  0  0  0  0  0  0
    6.8420   -1.5650    4.1300 F   0  0  0  0  0  0  0  0  0  0  0  0
    5.9720   -2.7500    2.5150 F   0  0  0  0  0  0  0  0  0  0  0  0
    4.6750   -1.6730    3.8990 F   0  0  0  0  0  0  0  0  0  0  0  0
    1.9720   -1.3770   -0.3340 C   0  0  0  0  0  0  0  0  0  0  0  0
   -2.3850    0.6810   -1.1190 C   0  0  0  0  0  0  0  0  0  0  0  0
    7.1160   -0.2470    1.5370 C   0  0  0  0  0  0  0  0  0  0  0  0
    7.2470    0.8380    0.6710 C   0  0  0  0  0  0  0  0  0  0  0  0
    6.2120    1.7660    0.5480 C   0  0  0  0  0  0  0  0  0  0  0  0
    4.2470   -0.4000   -0.6690 C   0  0  0  0  0  0  0  0  0  0  0  0
    0.3270    2.0920    0.1890 H   0  0  0  0  0  0  0  0  0  0  0  0
    3.7350    3.2260    1.8530 H   0  0  0  0  0  0  0  0  0  0  0  0
    4.0060    0.3930    2.7410 H   0  0  0  0  0  0  0  0  0  0  0  0
   -0.0030   -2.1840   -0.0460 H   0  0  0  0  0  0  0  0  0  0  0  0
    2.4330   -2.3430   -0.4780 H   0  0  0  0  0  0  0  0  0  0  0  0
   -2.2660   -0.0880   -1.8830 H   0  0  0  0  0  0  0  0  0  0  0  0
   -1.8580    1.5840   -1.4280 H   0  0  0  0  0  0  0  0  0  0  0  0
   -3.4440    0.9040   -0.9900 H   0  0  0  0  0  0  0  0  0  0  0  0
    7.9180   -0.9640    1.6300 H   0  0  0  0  0  0  0  0  0  0  0  0
    8.1520    0.9600    0.0940 H   0  0  0  0  0  0  0  0  0  0  0  0
    6.3150    2.6060   -0.1230 H   0  0  0  0  0  0  0  0  0  0  0  0
    4.7340    0.5750   -0.6860 H   0  0  0  0  0  0  0  0  0  0  0  0
    4.3800   -0.8900   -1.6340 H   0  0  0  0  0  0  0  0  0  0  0  0
    4.6910   -1.0140    0.1150 H   0  0  0  0  0  0  0  0  0  0  0  0
  1  3  1  0  0  0  0
  1  6  1  0  0  0  0
  1  9  2  0  0  0  0
  1 10  2  0  0  0  0
  2  7  1  0  0  0  0
  2 11  2  0  0  0  0
  2 12  2  0  0  0  0
  2 21  1  0  0  0  0
  3  5  2  0  0  0  0
  3 13  1  0  0  0  0
  4  8  1  0  0  0  0
  4 17  1  0  0  0  0
  4 18  1  0  0  0  0
  4 19  1  0  0  0  0
  5  7  1  0  0  0  0
  5 26  1  0  0  0  0
  6 14  1  0  0  0  0
  6 27  1  0  0  0  0
  7 16  2  0  0  0  0
  8 15  2  0  0  0  0
  8 22  1  0  0  0  0
 13 20  2  0  0  0  0
 13 25  1  0  0  0  0
 14 15  1  0  0  0  0
 14 24  2  0  0  0  0
 15 28  1  0  0  0  0
 16 20  1  0  0  0  0
 16 29  1  0  0  0  0
 20 30  1  0  0  0  0
 21 31  1  0  0  0  0
 21 32  1  0  0  0  0
 21 33  1  0  0  0  0
 22 23  2  0  0  0  0
 22 34  1  0  0  0  0
 23 24  1  0  0  0  0
 23 35  1  0  0  0  0
 24 36  1  0  0  0  0
 25 37  1  0  0  0  0
 25 38  1  0  0  0  0
 25 39  1  0  0  0  0
M  END
>  <$CLUSTER>
826

>  <INDEX>
533907

$$$$
EMC Microcollections 009B3204
 OpenBabel04062209303D

 51 53  0  0  1  0  0  0  0  0999 V2000
   -6.2390   -4.0180   -1.2370 C   0  0  0  0  0  0  0  0  0  0  0  0
   -7.2590   -3.3120   -0.6720 N   0  0  0  0  0  0  0  0  0  0  0  0
   -8.2880   -4.1100   -0.8370 C   0  0  0  0  0  0  0  0  0  0  0  0
   -4.8160   -3.5220   -1.3030 C   0  0  0  0  0  0  0  0  0  0  0  0
   -8.0200   -5.2860   -1.4670 O   0  0  0  0  0  0  0  0  0  0  0  0
   -6.6850   -5.2160   -1.7230 C   0  0  0  0  0  0  0  0  0  0  0  0
   -0.1530    1.1050   -0.0840 C   0  0  0  0  0  0  0  0  0  0  0  0
   -4.6940   -2.2670   -0.7190 N   0  0  0  0  0  0  0  0  0  0  0  0
   -1.3000    0.1900   -0.2510 C   0  0  0  0  0  0  0  0  0  0  0  0
    1.2020    0.6040    0.2230 C   0  0  0  0  0  0  0  0  0  0  0  0
   -3.9380   -4.2010   -1.8250 O   0  0  0  0  0  0  0  0  0  0  0  0
   -0.3300    2.3120   -0.2030 O   0  0  0  0  0  0  0  0  0  0  0  0
   -9.7080   -3.8970   -0.4190 C   0  0  2  0  0  0  0  0  0  0  0  0
   -3.5110   -1.4770   -0.5870 C   0  0  0  0  0  0  0  0  0  0  0  0
    2.3030    1.2570   -0.3390 C   0  0  0  0  0  0  0  0  0  0  0  0
   -1.1520   -1.0410   -0.8950 C   0  0  0  0  0  0  0  0  0  0  0  0
    1.3930   -0.4710    1.0950 C   0  0  0  0  0  0  0  0  0  0  0  0
   -2.5570    0.5980    0.2070 C   0  0  0  0  0  0  0  0  0  0  0  0
    3.7860   -0.2680    0.8110 C   0  0  0  0  0  0  0  0  0  0  0  0
  -10.1360   -2.4780   -0.5980 N   0  3  0  0  0  0  0  0  0  0  0  0
   -3.6600   -0.2410    0.0420 C   0  0  0  0  0  0  0  0  0  0  0  0
   -2.2600   -1.8750   -1.0570 C   0  0  0  0  0  0  0  0  0  0  0  0
    5.0560   -0.6980    1.0890 N   0  0  0  0  0  0  0  0  0  0  0  0
    2.6870   -0.9080    1.3830 C   0  0  0  0  0  0  0  0  0  0  0  0
    3.5940    0.8150   -0.0470 C   0  0  0  0  0  0  0  0  0  0  0  0
   -9.9160   -4.2690    1.0440 C   0  0  0  0  0  0  0  0  0  0  0  0
  -11.3790   -4.2320    1.5510 C   0  0  0  0  0  0  0  0  0  0  0  0
  -11.5170   -4.7340    2.9800 C   0  0  0  0  0  0  0  0  0  0  0  0
   -6.0880   -5.9680   -2.2180 H   0  0  0  0  0  0  0  0  0  0  0  0
   -5.5420   -1.8660   -0.3440 H   0  0  0  0  0  0  0  0  0  0  0  0
  -10.3100   -4.5420   -1.0600 H   0  0  0  0  0  0  0  0  0  0  0  0
    2.1550    2.1010   -0.9970 H   0  0  0  0  0  0  0  0  0  0  0  0
   -0.1850   -1.3460   -1.2660 H   0  0  0  0  0  0  0  0  0  0  0  0
    0.5430   -0.9620    1.5440 H   0  0  0  0  0  0  0  0  0  0  0  0
   -2.6740    1.5590    0.6870 H   0  0  0  0  0  0  0  0  0  0  0  0
   -9.5790   -1.8810   -0.0040 H   0  0  0  0  0  0  0  0  0  0  0  0
  -11.1100   -2.3860   -0.3480 H   0  0  0  0  0  0  0  0  0  0  0  0
  -10.0090   -2.2070   -1.5630 H   0  0  0  0  0  0  0  0  0  0  0  0
   -4.6300    0.0670    0.4020 H   0  0  0  0  0  0  0  0  0  0  0  0
   -2.1480   -2.8310   -1.5470 H   0  0  0  0  0  0  0  0  0  0  0  0
    5.8490   -0.2310    0.6730 H   0  0  0  0  0  0  0  0  0  0  0  0
    5.1990   -1.4820    1.7100 H   0  0  0  0  0  0  0  0  0  0  0  0
    2.8370   -1.7440    2.0500 H   0  0  0  0  0  0  0  0  0  0  0  0
    4.4460    1.3120   -0.4860 H   0  0  0  0  0  0  0  0  0  0  0  0
   -9.5380   -5.2810    1.1880 H   0  0  0  0  0  0  0  0  0  0  0  0
   -9.3350   -3.5750    1.6510 H   0  0  0  0  0  0  0  0  0  0  0  0
  -11.7380   -3.2040    1.5060 H   0  0  0  0  0  0  0  0  0  0  0  0
  -11.9900   -4.8580    0.9010 H   0  0  0  0  0  0  0  0  0  0  0  0
  -10.9110   -4.1160    3.6420 H   0  0  0  0  0  0  0  0  0  0  0  0
  -11.1770   -5.7680    3.0360 H   0  0  0  0  0  0  0  0  0  0  0  0
  -12.5620   -4.6780    3.2860 H   0  0  0  0  0  0  0  0  0  0  0  0
  1  2  1  0  0  0  0
  1  4  1  0  0  0  0
  1  6  2  0  0  0  0
  2  3  2  0  0  0  0
  3  5  1  0  0  0  0
  3 13  1  0  0  0  0
  4  8  1  0  0  0  0
  4 11  2  0  0  0  0
  5  6  1  0  0  0  0
  6 29  1  0  0  0  0
  7  9  1  0  0  0  0
  7 10  1  0  0  0  0
  7 12  2  0  0  0  0
  8 14  1  0  0  0  0
  8 30  1  0  0  0  0
  9 16  1  0  0  0  0
  9 18  2  0  0  0  0
 10 15  1  0  0  0  0
 10 17  2  0  0  0  0
 13 20  1  0  0  0  0
 13 26  1  0  0  0  0
 13 31  1  6  0  0  0
 14 21  2  0  0  0  0
 14 22  1  0  0  0  0
 15 25  2  0  0  0  0
 15 32  1  0  0  0  0
 16 22  2  0  0  0  0
 16 33  1  0  0  0  0
 17 24  1  0  0  0  0
 17 34  1  0  0  0  0
 18 21  1  0  0  0  0
 18 35  1  0  0  0  0
 19 23  1  0  0  0  0
 19 24  2  0  0  0  0
 19 25  1  0  0  0  0
 20 36  1  0  0  0  0
 20 37  1  0  0  0  0
 20 38  1  0  0  0  0
 21 39  1  0  0  0  0
 22 40  1  0  0  0  0
 23 41  1  0  0  0  0
 23 42  1  0  0  0  0
 24 43  1  0  0  0  0
 25 44  1  0  0  0  0
 26 27  1  0  0  0  0
 26 45  1  0  0  0  0
 26 46  1  0  0  0  0
 27 28  1  0  0  0  0
 27 47  1  0  0  0  0
 27 48  1  0  0  0  0
 28 49  1  0  0  0  0
 28 50  1  0  0  0  0
 28 51  1  0  0  0  0
M  CHG  1  20   1
M  END
>  <$CLUSTER>
341

>  <INDEX>
218044

$$$$
Chembridge 9014479
 OpenBabel04062209303D

 40 42  0  0  1  0  0  0  0  0999 V2000
    1.6260    0.0260   -0.1900 N   0  0  0  0  0  0  0  0  0  0  0  0
    2.2610    0.3720    0.9690 C   0  0  0  0  0  0  0  0  0  0  0  0
   -0.3480    1.3280    0.5000 C   0  0  0  0  0  0  0  0  0  0  0  0
    0.2610    0.4040   -0.5590 C   0  0  2  0  0  0  0  0  0  0  0  0
    3.4600   -0.1660    0.9510 N   0  0  0  0  0  0  0  0  0  0  0  0
    0.3250    1.6510    1.6300 C   0  0  0  0  0  0  0  0  0  0  0  0
    1.6090    1.1550    1.8530 N   0  0  0  0  0  0  0  0  0  0  0  0
    2.4360   -0.7090   -0.9640 N   0  0  0  0  0  0  0  0  0  0  0  0
    3.5530   -0.8330   -0.2550 N   0  0  0  0  0  0  0  0  0  0  0  0
   -0.5760   -0.8400   -0.8050 C   0  0  0  0  0  0  0  0  0  0  0  0
   -1.7120    1.8320    0.2600 C   0  0  0  0  0  0  0  0  0  0  0  0
   -1.1170   -1.0750   -2.0790 C   0  0  0  0  0  0  0  0  0  0  0  0
   -2.6340    1.7880    1.0610 O   0  0  0  0  0  0  0  0  0  0  0  0
   -1.8050    2.3440   -0.9900 O   0  0  0  0  0  0  0  0  0  0  0  0
   -1.8930   -2.2100   -2.3230 C   0  0  0  0  0  0  0  0  0  0  0  0
   -0.1900    2.5700    2.7070 C   0  0  0  0  0  0  0  0  0  0  0  0
   -0.8330   -1.7690    0.2170 C   0  0  0  0  0  0  0  0  0  0  0  0
   -2.3580   -2.3120   -3.6180 O   0  0  0  0  0  0  0  0  0  0  0  0
   -1.6090   -2.9020   -0.0300 C   0  0  0  0  0  0  0  0  0  0  0  0
   -2.1390   -3.1220   -1.3000 C   0  0  0  0  0  0  0  0  0  0  0  0
   -3.1590   -3.4500   -3.9300 C   0  0  0  0  0  0  0  0  0  0  0  0
   -3.0800    2.8750   -1.3760 C   0  0  0  0  0  0  0  0  0  0  0  0
   -3.5560   -3.3560   -5.3930 C   0  0  0  0  0  0  0  0  0  0  0  0
    0.2800    0.9690   -1.4910 H   0  0  0  0  0  0  0  0  0  0  0  0
    2.0730    1.3930    2.7180 H   0  0  0  0  0  0  0  0  0  0  0  0
   -0.9310   -0.3720   -2.8770 H   0  0  0  0  0  0  0  0  0  0  0  0
    0.5530    2.6530    3.5000 H   0  0  0  0  0  0  0  0  0  0  0  0
   -1.1150    2.1660    3.1180 H   0  0  0  0  0  0  0  0  0  0  0  0
   -0.3810    3.5560    2.2830 H   0  0  0  0  0  0  0  0  0  0  0  0
   -0.4260   -1.6050    1.2040 H   0  0  0  0  0  0  0  0  0  0  0  0
   -1.7990   -3.6090    0.7640 H   0  0  0  0  0  0  0  0  0  0  0  0
   -2.7400   -3.9990   -1.4910 H   0  0  0  0  0  0  0  0  0  0  0  0
   -4.0510   -3.4570   -3.3040 H   0  0  0  0  0  0  0  0  0  0  0  0
   -2.5880   -4.3630   -3.7590 H   0  0  0  0  0  0  0  0  0  0  0  0
   -3.0220    3.2530   -2.3970 H   0  0  0  0  0  0  0  0  0  0  0  0
   -3.3540    3.6870   -0.7030 H   0  0  0  0  0  0  0  0  0  0  0  0
   -3.8330    2.0880   -1.3220 H   0  0  0  0  0  0  0  0  0  0  0  0
   -4.1260   -2.4420   -5.5570 H   0  0  0  0  0  0  0  0  0  0  0  0
   -4.1670   -4.2180   -5.6600 H   0  0  0  0  0  0  0  0  0  0  0  0
   -2.6590   -3.3410   -6.0130 H   0  0  0  0  0  0  0  0  0  0  0  0
  1  2  1  0  0  0  0
  1  4  1  0  0  0  0
  1  8  1  0  0  0  0
  2  5  2  0  0  0  0
  2  7  1  0  0  0  0
  3  4  1  0  0  0  0
  3  6  2  0  0  0  0
  3 11  1  0  0  0  0
  4 10  1  0  0  0  0
  4 24  1  6  0  0  0
  5  9  1  0  0  0  0
  6  7  1  0  0  0  0
  6 16  1  0  0  0  0
  7 25  1  0  0  0  0
  8  9  2  0  0  0  0
 10 12  2  0  0  0  0
 10 17  1  0  0  0  0
 11 13  2  0  0  0  0
 11 14  1  0  0  0  0
 12 15  1  0  0  0  0
 12 26  1  0  0  0  0
 14 22  1  0  0  0  0
 15 18  1  0  0  0  0
 15 20  2  0  0  0  0
 16 27  1  0  0  0  0
 16 28  1  0  0  0  0
 16 29  1  0  0  0  0
 17 19  2  0  0  0  0
 17 30  1  0  0  0  0
 18 21  1  0  0  0  0
 19 20  1  0  0  0  0
 19 31  1  0  0  0  0
 20 32  1  0  0  0  0
 21 23  1  0  0  0  0
 21 33  1  0  0  0  0
 21 34  1  0  0  0  0
 22 35  1  0  0  0  0
 22 36  1  0  0  0  0
 22 37  1  0  0  0  0
 23 38  1  0  0  0  0
 23 39  1  0  0  0  0
 23 40  1  0  0  0  0
M  END
>  <$CLUSTER>
742

>  <INDEX>
110513

$$$$
Chem T&I NSB 0071574
 OpenBabel04062209303D

 49 51  0  0  0  0  0  0  0  0999 V2000
   -2.1070    0.0760    0.1270 S   0  0  0  0  0  0  0  0  0  0  0  0
   -0.8270   -0.9740    0.4440 N   0  0  0  0  0  0  0  0  0  0  0  0
   -1.1680    6.0780    5.8340 C   0  0  0  0  0  0  0  0  0  0  0  0
   -1.6380    4.7580    5.2730 C   0  0  0  0  0  0  0  0  0  0  0  0
    0.4600   -0.5320    0.0780 C   0  0  0  0  0  0  0  0  0  0  0  0
    1.1950   -0.0880    1.1100 N   0  0  0  0  0  0  0  0  0  0  0  0
    2.4240    0.3510    0.7870 C   0  0  0  0  0  0  0  0  0  0  0  0
    2.9520    0.3900   -0.4540 N   0  0  0  0  0  0  0  0  0  0  0  0
   -1.2090    4.5890    3.9620 N   0  0  0  0  0  0  0  0  0  0  0  0
   -1.8280    1.3940    1.3100 C   0  0  0  0  0  0  0  0  0  0  0  0
    0.8790   -0.5420   -1.2350 C   0  0  0  0  0  0  0  0  0  0  0  0
   -1.9710    0.6080   -1.2200 O   0  0  0  0  0  0  0  0  0  0  0  0
   -3.3310   -0.6190    0.5010 O   0  0  0  0  0  0  0  0  0  0  0  0
   -2.0660    6.8540    6.6130 C   0  0  0  0  0  0  0  0  0  0  0  0
    0.1480    6.4770    5.6660 C   0  0  0  0  0  0  0  0  0  0  0  0
    2.1540   -0.0640   -1.4470 C   0  0  0  0  0  0  0  0  0  0  0  0
   -2.3090    3.9890    5.9530 O   0  0  0  0  0  0  0  0  0  0  0  0
   -2.3870    1.3020    2.5760 C   0  0  0  0  0  0  0  0  0  0  0  0
   -1.0990    2.5080    0.9090 C   0  0  0  0  0  0  0  0  0  0  0  0
   -1.5990    8.0510    7.1680 C   0  0  0  0  0  0  0  0  0  0  0  0
   -1.4520    3.4700    3.0990 C   0  0  0  0  0  0  0  0  0  0  0  0
    0.5970    7.6710    6.2270 C   0  0  0  0  0  0  0  0  0  0  0  0
   -2.1910    2.3490    3.4790 C   0  0  0  0  0  0  0  0  0  0  0  0
   -0.9070    3.5510    1.8170 C   0  0  0  0  0  0  0  0  0  0  0  0
   -0.2750    8.4560    6.9750 C   0  0  0  0  0  0  0  0  0  0  0  0
    2.2110    8.1560    5.9880 Cl  0  0  0  0  0  0  0  0  0  0  0  0
   -3.3530    6.3950    6.7350 O   0  0  0  0  0  0  0  0  0  0  0  0
    3.3170    0.8520    1.9140 C   0  0  0  0  0  0  0  0  0  0  0  0
    2.7120   -0.0320   -2.8390 C   0  0  0  0  0  0  0  0  0  0  0  0
   -4.2510    7.1600    7.5290 C   0  0  0  0  0  0  0  0  0  0  0  0
   -0.9750   -1.8750    0.8750 H   0  0  0  0  0  0  0  0  0  0  0  0
   -0.6620    5.3430    3.5710 H   0  0  0  0  0  0  0  0  0  0  0  0
    0.2530   -0.8990   -2.0400 H   0  0  0  0  0  0  0  0  0  0  0  0
    0.8290    5.8600    5.0980 H   0  0  0  0  0  0  0  0  0  0  0  0
   -2.9650    0.4340    2.8590 H   0  0  0  0  0  0  0  0  0  0  0  0
   -0.6880    2.5660   -0.0880 H   0  0  0  0  0  0  0  0  0  0  0  0
   -2.2680    8.6670    7.7510 H   0  0  0  0  0  0  0  0  0  0  0  0
   -2.6120    2.2910    4.4720 H   0  0  0  0  0  0  0  0  0  0  0  0
   -0.3360    4.4210    1.5270 H   0  0  0  0  0  0  0  0  0  0  0  0
    0.0730    9.3820    7.4080 H   0  0  0  0  0  0  0  0  0  0  0  0
    2.7850    0.7720    2.8620 H   0  0  0  0  0  0  0  0  0  0  0  0
    3.5810    1.8940    1.7320 H   0  0  0  0  0  0  0  0  0  0  0  0
    4.2240    0.2490    1.9540 H   0  0  0  0  0  0  0  0  0  0  0  0
    3.7240    0.3730   -2.8160 H   0  0  0  0  0  0  0  0  0  0  0  0
    2.0830    0.5970   -3.4680 H   0  0  0  0  0  0  0  0  0  0  0  0
    2.7350   -1.0430   -3.2450 H   0  0  0  0  0  0  0  0  0  0  0  0
   -5.2290    6.6800    7.5360 H   0  0  0  0  0  0  0  0  0  0  0  0
   -4.3410    8.1630    7.1110 H   0  0  0  0  0  0  0  0  0  0  0  0
   -3.8700    7.2240    8.5480 H   0  0  0  0  0  0  0  0  0  0  0  0
  1  2  1  0  0  0  0
  1 10  1  0  0  0  0
  1 12  2  0  0  0  0
  1 13  2  0  0  0  0
  2  5  1  0  0  0  0
  2 31  1  0  0  0  0
  3  4  1  0  0  0  0
  3 14  2  0  0  0  0
  3 15  1  0  0  0  0
  4  9  1  0  0  0  0
  4 17  2  0  0  0  0
  5  6  1  0  0  0  0
  5 11  2  0  0  0  0
  6  7  2  0  0  0  0
  7  8  1  0  0  0  0
  7 28  1  0  0  0  0
  8 16  2  0  0  0  0
  9 21  1  0  0  0  0
  9 32  1  0  0  0  0
 10 18  2  0  0  0  0
 10 19  1  0  0  0  0
 11 16  1  0  0  0  0
 11 33  1  0  0  0  0
 14 20  1  0  0  0  0
 14 27  1  0  0  0  0
 15 22  2  0  0  0  0
 15 34  1  0  0  0  0
 16 29  1  0  0  0  0
 18 23  1  0  0  0  0
 18 35  1  0  0  0  0
 19 24  2  0  0  0  0
 19 36  1  0  0  0  0
 20 25  2  0  0  0  0
 20 37  1  0  0  0  0
 21 23  2  0  0  0  0
 21 24  1  0  0  0  0
 22 25  1  0  0  0  0
 22 26  1  0  0  0  0
 23 38  1  0  0  0  0
 24 39  1  0  0  0  0
 25 40  1  0  0  0  0
 27 30  1  0  0  0  0
 28 41  1  0  0  0  0
 28 42  1  0  0  0  0
 28 43  1  0  0  0  0
 29 44  1  0  0  0  0
 29 45  1  0  0  0  0
 29 46  1  0  0  0  0
 30 47  1  0  0  0  0
 30 48  1  0  0  0  0
 30 49  1  0  0  0  0
M  END
>  <$CLUSTER>
636

>  <INDEX>
574624

$$$$
Chem T&I AMSACS-12929
 OpenBabel04062209303D

 42 43  0  0  0  0  0  0  0  0999 V2000
   -1.2660    1.1460   -0.4770 S   0  0  0  0  0  0  0  0  0  0  0  0
    0.0200    0.0250   -0.0150 C   0  0  0  0  0  0  0  0  0  0  0  0
   -2.6300    0.3030    0.0970 N   0  0  0  0  0  0  0  0  0  0  0  0
   -4.5020   -1.0560    3.6330 N   0  3  1  0  0  0  0  0  0  0  0  0
    0.4300   -0.9590   -0.9150 C   0  0  0  0  0  0  0  0  0  0  0  0
    1.4640   -1.8240   -0.5570 C   0  0  0  0  0  0  0  0  0  0  0  0
   -1.0970    2.3580    0.3000 O   0  0  0  0  0  0  0  0  0  0  0  0
   -1.3130    1.1930   -1.9250 O   0  0  0  0  0  0  0  0  0  0  0  0
    2.0840   -1.6990    0.6870 C   0  0  0  0  0  0  0  0  0  0  0  0
   -4.6090    0.4210    3.3350 C   0  0  0  0  0  0  0  0  0  0  0  0
   -3.1210   -1.5990    3.3500 C   0  0  0  0  0  0  0  0  0  0  0  0
    0.6380    0.1630    1.2280 C   0  0  0  0  0  0  0  0  0  0  0  0
   -2.8750    0.1230    1.5370 C   0  0  2  0  0  0  0  0  0  0  0  0
    1.6710   -0.7070    1.5770 C   0  0  0  0  0  0  0  0  0  0  0  0
   -2.7730   -1.3580    1.8800 C   0  0  0  0  0  0  0  0  0  0  0  0
   -4.2620    0.6670    1.8590 C   0  0  0  0  0  0  0  0  0  0  0  0
   -4.9450   -1.3730    5.0350 C   0  0  0  0  0  0  0  0  0  0  0  0
    1.9170   -2.7960   -1.3500 F   0  0  0  0  0  0  0  0  0  0  0  0
    3.0620   -2.5650    0.9520 F   0  0  0  0  0  0  0  0  0  0  0  0
   -5.3180   -2.8660    5.1590 C   0  0  0  0  0  0  0  0  0  0  0  0
   -3.9970   -0.9470    6.1410 C   0  0  0  0  0  0  0  0  0  0  0  0
   -2.5800   -0.6240   -0.3010 H   0  0  0  0  0  0  0  0  0  0  0  0
   -5.1350   -1.5260    3.0020 H   0  0  0  0  0  0  0  0  0  0  0  0
   -0.0480   -1.0500   -1.8790 H   0  0  0  0  0  0  0  0  0  0  0  0
   -3.9140    0.9720    3.9690 H   0  0  0  0  0  0  0  0  0  0  0  0
   -5.6260    0.7590    3.5310 H   0  0  0  0  0  0  0  0  0  0  0  0
   -3.1010   -2.6690    3.5580 H   0  0  0  0  0  0  0  0  0  0  0  0
   -2.3940   -1.0920    3.9840 H   0  0  0  0  0  0  0  0  0  0  0  0
    0.3200    0.9350    1.9130 H   0  0  0  0  0  0  0  0  0  0  0  0
   -2.1360    0.6620    2.1300 H   0  0  0  0  0  0  0  0  0  0  0  0
    2.1530   -0.6120    2.5390 H   0  0  0  0  0  0  0  0  0  0  0  0
   -3.4650   -1.9190    1.2520 H   0  0  0  0  0  0  0  0  0  0  0  0
   -1.7550   -1.6990    1.6930 H   0  0  0  0  0  0  0  0  0  0  0  0
   -4.2820    1.7380    1.6600 H   0  0  0  0  0  0  0  0  0  0  0  0
   -4.9980    0.1670    1.2300 H   0  0  0  0  0  0  0  0  0  0  0  0
   -5.8270   -0.7540    5.1950 H   0  0  0  0  0  0  0  0  0  0  0  0
   -4.4300   -3.4770    4.9970 H   0  0  0  0  0  0  0  0  0  0  0  0
   -6.0720   -3.1150    4.4120 H   0  0  0  0  0  0  0  0  0  0  0  0
   -5.7160   -3.0600    6.1550 H   0  0  0  0  0  0  0  0  0  0  0  0
   -3.0710   -1.5170    6.0660 H   0  0  0  0  0  0  0  0  0  0  0  0
   -4.4610   -1.1340    7.1090 H   0  0  0  0  0  0  0  0  0  0  0  0
   -3.7780    0.1160    6.0420 H   0  0  0  0  0  0  0  0  0  0  0  0
  1  2  1  0  0  0  0
  1  3  1  0  0  0  0
  1  7  2  0  0  0  0
  1  8  2  0  0  0  0
  2  5  1  0  0  0  0
  2 12  2  0  0  0  0
  3 13  1  0  0  0  0
  3 22  1  0  0  0  0
  4 10  1  0  0  0  0
  4 11  1  0  0  0  0
  4 17  1  0  0  0  0
  4 23  1  6  0  0  0
  5  6  2  0  0  0  0
  5 24  1  0  0  0  0
  6  9  1  0  0  0  0
  6 18  1  0  0  0  0
  9 14  2  0  0  0  0
  9 19  1  0  0  0  0
 10 16  1  0  0  0  0
 10 25  1  0  0  0  0
 10 26  1  0  0  0  0
 11 15  1  0  0  0  0
 11 27  1  0  0  0  0
 11 28  1  0  0  0  0
 12 14  1  0  0  0  0
 12 29  1  0  0  0  0
 13 15  1  0  0  0  0
 13 16  1  0  0  0  0
 13 30  1  1  0  0  0
 14 31  1  0  0  0  0
 15 32  1  0  0  0  0
 15 33  1  0  0  0  0
 16 34  1  0  0  0  0
 16 35  1  0  0  0  0
 17 20  1  0  0  0  0
 17 21  1  0  0  0  0
 17 36  1  0  0  0  0
 20 37  1  0  0  0  0
 20 38  1  0  0  0  0
 20 39  1  0  0  0  0
 21 40  1  0  0  0  0
 21 41  1  0  0  0  0
 21 42  1  0  0  0  0
M  CHG  1   4   1
M  END
>  <$CLUSTER>
792

>  <INDEX>
519041

$$$$
Life Chemicals F0396-0052
 OpenBabel04062209303D

 46 49  0  0  0  0  0  0  0  0999 V2000
    0.9100    0.0670    0.2250 C   0  0  0  0  0  0  0  0  0  0  0  0
   -0.0990   -0.3270   -0.6770 N   0  0  0  0  0  0  0  0  0  0  0  0
    0.4240   -0.9910   -1.7530 N   0  0  0  0  0  0  0  0  0  0  0  0
    2.0460   -0.5880   -0.2020 C   0  0  0  0  0  0  0  0  0  0  0  0
    0.6790    0.9830    1.2390 N   0  0  0  0  0  0  0  0  0  0  0  0
    1.6850   -1.1980   -1.4080 C   0  0  0  0  0  0  0  0  0  0  0  0
    1.5840    1.3030    2.2380 C   0  0  0  0  0  0  0  0  0  0  0  0
   -1.5120   -0.1500   -0.6080 C   0  0  0  0  0  0  0  0  0  0  0  0
    4.2420   -1.7180   -1.1610 S   0  0  0  0  0  0  0  0  0  0  0  0
    1.0360    2.3780    3.1440 C   0  0  0  0  0  0  0  0  0  0  0  0
    2.6860    0.8090    2.4490 O   0  0  0  0  0  0  0  0  0  0  0  0
    3.4610   -0.7100    0.1940 C   0  0  0  0  0  0  0  0  0  0  0  0
    2.7060   -1.9220   -2.1790 C   0  0  0  0  0  0  0  0  0  0  0  0
   -2.2680   -0.2110   -1.7900 C   0  0  0  0  0  0  0  0  0  0  0  0
   -2.1720    0.0220    0.6140 C   0  0  0  0  0  0  0  0  0  0  0  0
    2.0100    3.1510    3.8510 C   0  0  0  0  0  0  0  0  0  0  0  0
   -0.2990    2.6170    3.3670 C   0  0  0  0  0  0  0  0  0  0  0  0
   -4.3020    0.1400   -0.5320 C   0  0  0  0  0  0  0  0  0  0  0  0
    0.2360    4.3970    4.9170 C   0  0  0  0  0  0  0  0  0  0  0  0
   -3.5610    0.1730    0.6480 C   0  0  0  0  0  0  0  0  0  0  0  0
    1.5950    4.1590    4.7230 C   0  0  0  0  0  0  0  0  0  0  0  0
   -0.7090    3.6260    4.2420 C   0  0  0  0  0  0  0  0  0  0  0  0
   -3.6550   -0.0570   -1.7490 C   0  0  0  0  0  0  0  0  0  0  0  0
   -5.6680    0.2650   -0.6210 O   0  0  0  0  0  0  0  0  0  0  0  0
   -0.0430    5.4090    5.8070 O   0  0  0  0  0  0  0  0  0  0  0  0
   -6.3780    0.4610    0.5970 C   0  0  0  0  0  0  0  0  0  0  0  0
   -1.4160    5.6950    6.0490 C   0  0  0  0  0  0  0  0  0  0  0  0
   -0.2150    1.4520    1.2510 H   0  0  0  0  0  0  0  0  0  0  0  0
    3.5500   -1.2200    1.1530 H   0  0  0  0  0  0  0  0  0  0  0  0
    3.9280    0.2730    0.2610 H   0  0  0  0  0  0  0  0  0  0  0  0
    2.8330   -1.4810   -3.1680 H   0  0  0  0  0  0  0  0  0  0  0  0
    2.4430   -2.9750   -2.2810 H   0  0  0  0  0  0  0  0  0  0  0  0
   -1.7740   -0.3780   -2.7360 H   0  0  0  0  0  0  0  0  0  0  0  0
   -1.6060    0.0380    1.5340 H   0  0  0  0  0  0  0  0  0  0  0  0
    3.0630    2.9550    3.7110 H   0  0  0  0  0  0  0  0  0  0  0  0
   -1.0400    2.0170    2.8600 H   0  0  0  0  0  0  0  0  0  0  0  0
   -4.0630    0.3160    1.5940 H   0  0  0  0  0  0  0  0  0  0  0  0
    2.3280    4.7550    5.2470 H   0  0  0  0  0  0  0  0  0  0  0  0
   -1.7620    3.8090    4.3960 H   0  0  0  0  0  0  0  0  0  0  0  0
   -4.2280   -0.0910   -2.6640 H   0  0  0  0  0  0  0  0  0  0  0  0
   -7.4440    0.5440    0.3870 H   0  0  0  0  0  0  0  0  0  0  0  0
   -6.0300    1.3760    1.0770 H   0  0  0  0  0  0  0  0  0  0  0  0
   -6.2030   -0.3860    1.2600 H   0  0  0  0  0  0  0  0  0  0  0  0
   -1.4960    6.5110    6.7670 H   0  0  0  0  0  0  0  0  0  0  0  0
   -1.9070    4.8080    6.4500 H   0  0  0  0  0  0  0  0  0  0  0  0
   -1.8970    5.9850    5.1150 H   0  0  0  0  0  0  0  0  0  0  0  0
  1  2  1  0  0  0  0
  1  4  2  0  0  0  0
  1  5  1  0  0  0  0
  2  3  1  0  0  0  0
  2  8  1  0  0  0  0
  3  6  2  0  0  0  0
  4  6  1  0  0  0  0
  4 12  1  0  0  0  0
  5  7  1  0  0  0  0
  5 28  1  0  0  0  0
  6 13  1  0  0  0  0
  7 10  1  0  0  0  0
  7 11  2  0  0  0  0
  8 14  1  0  0  0  0
  8 15  2  0  0  0  0
  9 12  1  0  0  0  0
  9 13  1  0  0  0  0
 10 16  2  0  0  0  0
 10 17  1  0  0  0  0
 12 29  1  0  0  0  0
 12 30  1  0  0  0  0
 13 31  1  0  0  0  0
 13 32  1  0  0  0  0
 14 23  2  0  0  0  0
 14 33  1  0  0  0  0
 15 20  1  0  0  0  0
 15 34  1  0  0  0  0
 16 21  1  0  0  0  0
 16 35  1  0  0  0  0
 17 22  2  0  0  0  0
 17 36  1  0  0  0  0
 18 20  2  0  0  0  0
 18 23  1  0  0  0  0
 18 24  1  0  0  0  0
 19 21  2  0  0  0  0
 19 22  1  0  0  0  0
 19 25  1  0  0  0  0
 20 37  1  0  0  0  0
 21 38  1  0  0  0  0
 22 39  1  0  0  0  0
 23 40  1  0  0  0  0
 24 26  1  0  0  0  0
 25 27  1  0  0  0  0
 26 41  1  0  0  0  0
 26 42  1  0  0  0  0
 26 43  1  0  0  0  0
 27 44  1  0  0  0  0
 27 45  1  0  0  0  0
 27 46  1  0  0  0  0
M  END
>  <$CLUSTER>
411

>  <INDEX>
269861

$$$$
Chem T&I AMSACS-08712
 OpenBabel04062209303D

 40 42  0  0  0  0  0  0  0  0999 V2000
   -0.3670    0.1270    0.2380 C   0  0  0  0  0  0  0  0  0  0  0  0
   -1.1650   -0.7570    1.5370 S   0  0  0  0  0  0  0  0  0  0  0  0
    0.6070   -0.4650   -0.6080 C   0  0  0  0  0  0  0  0  0  0  0  0
    4.1780   -4.4980    4.4020 N   0  0  0  0  0  0  0  0  0  0  0  0
    4.3520   -3.5150    3.4960 N   0  0  0  0  0  0  0  0  0  0  0  0
    1.0620   -1.7280   -0.5670 N   0  0  0  0  0  0  0  0  0  0  0  0
    2.1840   -1.8760   -1.7800 S   0  0  0  0  0  0  0  0  0  0  0  0
    1.2530    0.3500   -1.7060 C   0  0  0  0  0  0  0  0  0  0  0  0
    5.5430   -2.8460    3.6300 C   0  0  0  0  0  0  0  0  0  0  0  0
    6.1690   -3.4310    4.7100 C   0  0  0  0  0  0  0  0  0  0  0  0
    2.1520   -0.3450   -2.4200 N   0  0  0  0  0  0  0  0  0  0  0  0
    5.2860   -4.4360    5.1420 C   0  0  0  0  0  0  0  0  0  0  0  0
   -0.6830    1.4750   -0.0070 C   0  0  0  0  0  0  0  0  0  0  0  0
   -1.9760    0.1810    2.2880 O   0  0  0  0  0  0  0  0  0  0  0  0
   -1.7480   -1.9410    0.9400 O   0  0  0  0  0  0  0  0  0  0  0  0
    0.1680   -1.1970    2.5020 N   0  0  0  0  0  0  0  0  0  0  0  0
   -0.0720    2.2280   -1.0370 C   0  0  0  0  0  0  0  0  0  0  0  0
    0.9000    1.7060   -1.9080 C   0  0  0  0  0  0  0  0  0  0  0  0
    3.3240   -3.3100    2.4750 C   0  0  0  0  0  0  0  0  0  0  0  0
    5.9750   -1.7290    2.7560 C   0  0  0  0  0  0  0  0  0  0  0  0
    2.2490   -2.3480    3.0000 C   0  0  0  0  0  0  0  0  0  0  0  0
    5.5130   -5.3280    6.2600 C   0  0  0  0  0  0  0  0  0  0  0  0
    1.1720   -2.1330    1.9580 C   0  0  0  0  0  0  0  0  0  0  0  0
    7.1290   -3.1730    5.1320 H   0  0  0  0  0  0  0  0  0  0  0  0
   -1.4220    1.9550    0.6170 H   0  0  0  0  0  0  0  0  0  0  0  0
   -0.2020   -1.6170    3.3430 H   0  0  0  0  0  0  0  0  0  0  0  0
   -0.3680    3.2590   -1.1610 H   0  0  0  0  0  0  0  0  0  0  0  0
    1.3510    2.3040   -2.6860 H   0  0  0  0  0  0  0  0  0  0  0  0
    2.8630   -4.2670    2.2290 H   0  0  0  0  0  0  0  0  0  0  0  0
    3.7820   -2.8870    1.5810 H   0  0  0  0  0  0  0  0  0  0  0  0
    5.2120   -1.5430    2.0000 H   0  0  0  0  0  0  0  0  0  0  0  0
    6.9130   -1.9920    2.2680 H   0  0  0  0  0  0  0  0  0  0  0  0
    6.1180   -0.8310    3.3570 H   0  0  0  0  0  0  0  0  0  0  0  0
    2.7110   -1.3910    3.2400 H   0  0  0  0  0  0  0  0  0  0  0  0
    1.7990   -2.7700    3.8990 H   0  0  0  0  0  0  0  0  0  0  0  0
    4.6640   -6.0030    6.3640 H   0  0  0  0  0  0  0  0  0  0  0  0
    5.6270   -4.7440    7.1730 H   0  0  0  0  0  0  0  0  0  0  0  0
    6.4190   -5.9080    6.0840 H   0  0  0  0  0  0  0  0  0  0  0  0
    1.6140   -1.7130    1.0550 H   0  0  0  0  0  0  0  0  0  0  0  0
    0.6960   -3.0840    1.7210 H   0  0  0  0  0  0  0  0  0  0  0  0
  1  2  1  0  0  0  0
  1  3  1  0  0  0  0
  1 13  2  0  0  0  0
  2 14  2  0  0  0  0
  2 15  2  0  0  0  0
  2 16  1  0  0  0  0
  3  6  2  0  0  0  0
  3  8  1  0  0  0  0
  4  5  1  0  0  0  0
  4 12  2  0  0  0  0
  5  9  1  0  0  0  0
  5 19  1  0  0  0  0
  6  7  1  0  0  0  0
  7 11  1  0  0  0  0
  8 11  2  0  0  0  0
  8 18  1  0  0  0  0
  9 10  2  0  0  0  0
  9 20  1  0  0  0  0
 10 12  1  0  0  0  0
 10 24  1  0  0  0  0
 12 22  1  0  0  0  0
 13 17  1  0  0  0  0
 13 25  1  0  0  0  0
 16 23  1  0  0  0  0
 16 26  1  0  0  0  0
 17 18  2  0  0  0  0
 17 27  1  0  0  0  0
 18 28  1  0  0  0  0
 19 21  1  0  0  0  0
 19 29  1  0  0  0  0
 19 30  1  0  0  0  0
 20 31  1  0  0  0  0
 20 32  1  0  0  0  0
 20 33  1  0  0  0  0
 21 23  1  0  0  0  0
 21 34  1  0  0  0  0
 21 35  1  0  0  0  0
 22 36  1  0  0  0  0
 22 37  1  0  0  0  0
 22 38  1  0  0  0  0
 23 39  1  0  0  0  0
 23 40  1  0  0  0  0
M  END
>  <$CLUSTER>
788

>  <INDEX>
516346

$$$$
Life Chemicals F0560-0107
 OpenBabel04062209303D

 47 50  0  0  1  0  0  0  0  0999 V2000
    0.6230    0.8470   -0.6380 N   0  0  0  0  0  0  0  0  0  0  0  0
   -0.1600   -0.4590    1.2900 C   0  0  0  0  0  0  0  0  0  0  0  0
    0.1490   -0.4620   -0.1920 C   0  0  2  0  0  0  0  0  0  0  0  0
   -0.1730    1.8380   -1.2010 C   0  0  0  0  0  0  0  0  0  0  0  0
    0.5270    0.2770    2.2730 C   0  0  0  0  0  0  0  0  0  0  0  0
    1.6250    1.1350    2.0940 N   0  0  0  0  0  0  0  0  0  0  0  0
    2.3430    1.5770    1.0250 C   0  0  0  0  0  0  0  0  0  0  0  0
    2.0280    1.1500   -0.3990 C   0  0  0  0  0  0  0  0  0  0  0  0
   -1.2300   -1.2940    1.7020 C   0  0  0  0  0  0  0  0  0  0  0  0
    1.0180   -1.6160   -0.6830 C   0  0  0  0  0  0  0  0  0  0  0  0
    0.2420    2.9300   -1.5810 O   0  0  0  0  0  0  0  0  0  0  0  0
   -1.6120    1.5850   -1.3580 C   0  0  0  0  0  0  0  0  0  0  0  0
    3.3490    2.2600    1.2390 O   0  0  0  0  0  0  0  0  0  0  0  0
    0.1120    0.1610    3.6190 C   0  0  0  0  0  0  0  0  0  0  0  0
    1.8900   -2.3400    0.1560 C   0  0  0  0  0  0  0  0  0  0  0  0
    0.9760   -1.9680   -2.0470 C   0  0  0  0  0  0  0  0  0  0  0  0
   -1.6220   -1.3900    3.0330 C   0  0  0  0  0  0  0  0  0  0  0  0
    2.6120   -3.7100   -1.7000 C   0  0  0  0  0  0  0  0  0  0  0  0
   -0.9490   -0.6580    3.9960 C   0  0  0  0  0  0  0  0  0  0  0  0
    2.6760   -3.3770   -0.3500 C   0  0  0  0  0  0  0  0  0  0  0  0
    1.7630   -3.0050   -2.5490 C   0  0  0  0  0  0  0  0  0  0  0  0
    3.3940   -4.7140   -2.0990 F   0  0  0  0  0  0  0  0  0  0  0  0
   -2.1040    1.2280   -2.6140 C   0  0  0  0  0  0  0  0  0  0  0  0
   -2.4620    1.7270   -0.2620 C   0  0  0  0  0  0  0  0  0  0  0  0
   -2.7600   -2.2780    3.4140 C   0  0  0  0  0  0  0  0  0  0  0  0
   -3.4690    0.9830   -2.7650 C   0  0  0  0  0  0  0  0  0  0  0  0
   -3.8260    1.4790   -0.4210 C   0  0  0  0  0  0  0  0  0  0  0  0
   -4.3270    1.1050   -1.6700 C   0  0  0  0  0  0  0  0  0  0  0  0
   -0.8060   -0.6570   -0.6800 H   0  0  0  0  0  0  0  0  0  0  0  0
    1.9620    1.5150    2.9670 H   0  0  0  0  0  0  0  0  0  0  0  0
    2.3220    1.9570   -1.0700 H   0  0  0  0  0  0  0  0  0  0  0  0
    2.6130    0.2580   -0.6250 H   0  0  0  0  0  0  0  0  0  0  0  0
   -1.7570   -1.8740    0.9590 H   0  0  0  0  0  0  0  0  0  0  0  0
    0.6340    0.7250    4.3780 H   0  0  0  0  0  0  0  0  0  0  0  0
    1.9510   -2.0890    1.2050 H   0  0  0  0  0  0  0  0  0  0  0  0
    0.3230   -1.4260   -2.7150 H   0  0  0  0  0  0  0  0  0  0  0  0
   -1.2450   -0.7220    5.0330 H   0  0  0  0  0  0  0  0  0  0  0  0
    3.3360   -3.9230    0.3080 H   0  0  0  0  0  0  0  0  0  0  0  0
    1.7140   -3.2610   -3.5970 H   0  0  0  0  0  0  0  0  0  0  0  0
   -1.4360    1.1420   -3.4590 H   0  0  0  0  0  0  0  0  0  0  0  0
   -2.0690    2.0250    0.6990 H   0  0  0  0  0  0  0  0  0  0  0  0
   -3.1550   -2.7650    2.5220 H   0  0  0  0  0  0  0  0  0  0  0  0
   -3.5450   -1.6830    3.8810 H   0  0  0  0  0  0  0  0  0  0  0  0
   -2.4110   -3.0350    4.1170 H   0  0  0  0  0  0  0  0  0  0  0  0
   -3.8630    0.6990   -3.7300 H   0  0  0  0  0  0  0  0  0  0  0  0
   -4.4940    1.5760    0.4220 H   0  0  0  0  0  0  0  0  0  0  0  0
   -5.3820    0.9090   -1.7890 H   0  0  0  0  0  0  0  0  0  0  0  0
  1  3  1  0  0  0  0
  1  4  1  0  0  0  0
  1  8  1  0  0  0  0
  2  3  1  0  0  0  0
  2  5  2  0  0  0  0
  2  9  1  0  0  0  0
  3 10  1  0  0  0  0
  3 29  1  6  0  0  0
  4 11  2  0  0  0  0
  4 12  1  0  0  0  0
  5  6  1  0  0  0  0
  5 14  1  0  0  0  0
  6  7  1  0  0  0  0
  6 30  1  0  0  0  0
  7  8  1  0  0  0  0
  7 13  2  0  0  0  0
  8 31  1  0  0  0  0
  8 32  1  0  0  0  0
  9 17  2  0  0  0  0
  9 33  1  0  0  0  0
 10 15  2  0  0  0  0
 10 16  1  0  0  0  0
 12 23  2  0  0  0  0
 12 24  1  0  0  0  0
 14 19  2  0  0  0  0
 14 34  1  0  0  0  0
 15 20  1  0  0  0  0
 15 35  1  0  0  0  0
 16 21  2  0  0  0  0
 16 36  1  0  0  0  0
 17 19  1  0  0  0  0
 17 25  1  0  0  0  0
 18 20  2  0  0  0  0
 18 21  1  0  0  0  0
 18 22  1  0  0  0  0
 19 37  1  0  0  0  0
 20 38  1  0  0  0  0
 21 39  1  0  0  0  0
 23 26  1  0  0  0  0
 23 40  1  0  0  0  0
 24 27  2  0  0  0  0
 24 41  1  0  0  0  0
 25 42  1  0  0  0  0
 25 43  1  0  0  0  0
 25 44  1  0  0  0  0
 26 28  2  0  0  0  0
 26 45  1  0  0  0  0
 27 28  1  0  0  0  0
 27 46  1  0  0  0  0
 28 47  1  0  0  0  0
M  END
>  <$CLUSTER>
415

>  <INDEX>
274004

$$$$
Chemdiv 8005-4355
 OpenBabel04062209303D

 46 48  0  0  0  0  0  0  0  0999 V2000
   -0.9480    4.9760   -7.3100 C   0  0  0  0  0  0  0  0  0  0  0  0
   -0.5790    0.1450    0.1350 N   0  0  0  0  0  0  0  0  0  0  0  0
   -1.4740    1.5620   -1.5690 C   0  0  0  0  0  0  0  0  0  0  0  0
   -0.3260    0.8830   -0.9750 N   0  0  0  0  0  0  0  0  0  0  0  0
   -0.1410    4.6070   -6.2410 N   0  0  0  0  0  0  0  0  0  0  0  0
    0.4150   -0.5610    0.5970 C   0  0  0  0  0  0  0  0  0  0  0  0
   -1.0380    2.3480   -2.8040 C   0  0  0  0  0  0  0  0  0  0  0  0
    0.1590   -1.4260    1.8090 C   0  0  0  0  0  0  0  0  0  0  0  0
   -2.1330    4.7170   -7.4860 O   0  0  0  0  0  0  0  0  0  0  0  0
   -0.1760    5.7900   -8.3200 C   0  0  0  0  0  0  0  0  0  0  0  0
   -2.6120    1.5400   -1.1870 O   0  0  0  0  0  0  0  0  0  0  0  0
   -0.5080    3.8330   -5.0970 C   0  0  0  0  0  0  0  0  0  0  0  0
   -2.0730    2.5900   -3.7380 C   0  0  0  0  0  0  0  0  0  0  0  0
    0.2140    2.8610   -3.0010 C   0  0  0  0  0  0  0  0  0  0  0  0
   -1.1580   -1.6260    2.2450 C   0  0  0  0  0  0  0  0  0  0  0  0
    1.2100   -2.0170    2.5250 C   0  0  0  0  0  0  0  0  0  0  0  0
   -0.3750   -3.0040    4.0670 C   0  0  0  0  0  0  0  0  0  0  0  0
    0.4920    3.6020   -4.1540 C   0  0  0  0  0  0  0  0  0  0  0  0
   -1.7900    3.3290   -4.8880 C   0  0  0  0  0  0  0  0  0  0  0  0
    0.9400   -2.8060    3.6490 C   0  0  0  0  0  0  0  0  0  0  0  0
   -1.4250   -2.4140    3.3670 C   0  0  0  0  0  0  0  0  0  0  0  0
   -0.7460   -4.0490    5.5490 Br  0  0  0  0  0  0  0  0  0  0  0  0
    1.8060   -0.6030    0.0040 C   0  0  0  0  0  0  0  0  0  0  0  0
   -0.6880    5.7760   -9.6530 C   0  0  0  0  0  0  0  0  0  0  0  0
    0.9150    6.5730   -8.0270 C   0  0  0  0  0  0  0  0  0  0  0  0
   -0.0500    6.5210  -10.6470 C   0  0  0  0  0  0  0  0  0  0  0  0
    1.5490    7.3180   -9.0250 C   0  0  0  0  0  0  0  0  0  0  0  0
    1.0690    7.2900  -10.3330 C   0  0  0  0  0  0  0  0  0  0  0  0
    0.6020    0.9580   -1.3670 H   0  0  0  0  0  0  0  0  0  0  0  0
    0.8180    4.9230   -6.2770 H   0  0  0  0  0  0  0  0  0  0  0  0
   -3.0680    2.2080   -3.5640 H   0  0  0  0  0  0  0  0  0  0  0  0
    0.9880    2.6940   -2.2660 H   0  0  0  0  0  0  0  0  0  0  0  0
   -1.9750   -1.1660    1.7080 H   0  0  0  0  0  0  0  0  0  0  0  0
    2.2310   -1.8630    2.2080 H   0  0  0  0  0  0  0  0  0  0  0  0
    1.4850    3.9960   -4.3140 H   0  0  0  0  0  0  0  0  0  0  0  0
   -2.5660    3.5100   -5.6170 H   0  0  0  0  0  0  0  0  0  0  0  0
    1.7530   -3.2630    4.1940 H   0  0  0  0  0  0  0  0  0  0  0  0
   -2.4440   -2.5660    3.6910 H   0  0  0  0  0  0  0  0  0  0  0  0
    2.4320   -1.2740    0.5920 H   0  0  0  0  0  0  0  0  0  0  0  0
    2.2360    0.3980    0.0160 H   0  0  0  0  0  0  0  0  0  0  0  0
    1.7520   -0.9630   -1.0230 H   0  0  0  0  0  0  0  0  0  0  0  0
   -1.5650    5.1920   -9.8910 H   0  0  0  0  0  0  0  0  0  0  0  0
    1.2870    6.6130   -7.0140 H   0  0  0  0  0  0  0  0  0  0  0  0
   -0.4240    6.5010  -11.6600 H   0  0  0  0  0  0  0  0  0  0  0  0
    2.4140    7.9170   -8.7820 H   0  0  0  0  0  0  0  0  0  0  0  0
    1.5640    7.8640  -11.1030 H   0  0  0  0  0  0  0  0  0  0  0  0
  1  5  1  0  0  0  0
  1  9  2  0  0  0  0
  1 10  1  0  0  0  0
  2  4  1  0  0  0  0
  2  6  2  0  0  0  0
  3  4  1  0  0  0  0
  3  7  1  0  0  0  0
  3 11  2  0  0  0  0
  4 29  1  0  0  0  0
  5 12  1  0  0  0  0
  5 30  1  0  0  0  0
  6  8  1  0  0  0  0
  6 23  1  0  0  0  0
  7 13  1  0  0  0  0
  7 14  2  0  0  0  0
  8 15  1  0  0  0  0
  8 16  2  0  0  0  0
 10 24  2  0  0  0  0
 10 25  1  0  0  0  0
 12 18  2  0  0  0  0
 12 19  1  0  0  0  0
 13 19  2  0  0  0  0
 13 31  1  0  0  0  0
 14 18  1  0  0  0  0
 14 32  1  0  0  0  0
 15 21  2  0  0  0  0
 15 33  1  0  0  0  0
 16 20  1  0  0  0  0
 16 34  1  0  0  0  0
 17 20  2  0  0  0  0
 17 21  1  0  0  0  0
 17 22  1  0  0  0  0
 18 35  1  0  0  0  0
 19 36  1  0  0  0  0
 20 37  1  0  0  0  0
 21 38  1  0  0  0  0
 23 39  1  0  0  0  0
 23 40  1  0  0  0  0
 23 41  1  0  0  0  0
 24 26  1  0  0  0  0
 24 42  1  0  0  0  0
 25 27  2  0  0  0  0
 25 43  1  0  0  0  0
 26 28  2  0  0  0  0
 26 44  1  0  0  0  0
 27 28  1  0  0  0  0
 27 45  1  0  0  0  0
 28 46  1  0  0  0  0
M  END
>  <$CLUSTER>
829

>  <INDEX>
104583

$$$$
InterBioScreen STOCK5S-70232
 OpenBabel04062209303D

 51 54  0  0  1  0  0  0  0  0999 V2000
   -1.4110    0.0410   -0.1400 C   0  0  0  0  0  0  0  0  0  0  0  0
   -0.2860    3.9420   -1.6230 S   0  0  0  0  0  0  0  0  0  0  0  0
   -0.0400    0.2710   -0.2950 N   0  0  0  0  0  0  0  0  0  0  0  0
    0.3100    1.3820   -1.1950 C   0  0  1  0  0  0  0  0  0  0  0  0
   -0.7920    1.4190   -2.2660 C   0  0  1  0  0  0  0  0  0  0  0  0
   -1.9900   -0.6990    0.7430 N   0  0  0  0  0  0  0  0  0  0  0  0
   -2.3140    0.9830   -1.3630 S   0  0  0  0  0  0  0  0  0  0  0  0
    0.2910    2.7280   -0.4520 C   0  0  0  0  0  0  0  0  0  0  0  0
   -0.8090    2.8040   -2.8920 C   0  0  0  0  0  0  0  0  0  0  0  0
   -3.4360   -0.8330    0.7870 C   0  0  0  0  0  0  0  0  0  0  0  0
    0.9930   -0.4630    0.3310 C   0  0  0  0  0  0  0  0  0  0  0  0
   -1.4560    4.5950   -1.0730 O   0  0  0  0  0  0  0  0  0  0  0  0
    0.8530    4.6880   -2.1160 O   0  0  0  0  0  0  0  0  0  0  0  0
   -4.1170   -0.2280   -0.0360 O   0  0  0  0  0  0  0  0  0  0  0  0
    2.2660    0.0900    0.5710 C   0  0  0  0  0  0  0  0  0  0  0  0
    0.8050   -1.7990    0.7370 C   0  0  0  0  0  0  0  0  0  0  0  0
   -3.9150   -1.7020    1.8410 C   0  0  0  0  0  0  0  0  0  0  0  0
    3.0620   -1.9530    1.5900 C   0  0  0  0  0  0  0  0  0  0  0  0
    1.8220   -2.5330    1.3590 C   0  0  0  0  0  0  0  0  0  0  0  0
    3.2850   -0.6410    1.1940 C   0  0  0  0  0  0  0  0  0  0  0  0
   -5.4250   -1.8240    1.8670 C   0  0  0  0  0  0  0  0  0  0  0  0
   -5.9370   -2.7410    2.9780 C   0  0  0  0  0  0  0  0  0  0  0  0
    4.1310   -2.5630    2.1820 O   0  0  0  0  0  0  0  0  0  0  0  0
   -6.1990   -2.2210    4.2450 C   0  0  0  0  0  0  0  0  0  0  0  0
   -6.0720   -4.1080    2.7460 C   0  0  0  0  0  0  0  0  0  0  0  0
    3.9510   -3.9110    2.6030 C   0  0  0  0  0  0  0  0  0  0  0  0
   -6.5040   -4.9500    3.7710 C   0  0  0  0  0  0  0  0  0  0  0  0
   -6.6300   -3.0640    5.2690 C   0  0  0  0  0  0  0  0  0  0  0  0
   -6.7840   -4.4280    5.0310 C   0  0  0  0  0  0  0  0  0  0  0  0
    1.3080    1.2330   -1.6060 H   0  0  0  0  0  0  0  0  0  0  0  0
   -0.6540    0.7280   -3.0980 H   0  0  0  0  0  0  0  0  0  0  0  0
   -0.3840    2.6770    0.4020 H   0  0  0  0  0  0  0  0  0  0  0  0
    1.2930    2.9830   -0.1080 H   0  0  0  0  0  0  0  0  0  0  0  0
   -0.1230    2.8430   -3.7380 H   0  0  0  0  0  0  0  0  0  0  0  0
   -1.8160    3.0520   -3.2290 H   0  0  0  0  0  0  0  0  0  0  0  0
    2.4620    1.1070    0.2660 H   0  0  0  0  0  0  0  0  0  0  0  0
   -0.1510   -2.2700    0.5630 H   0  0  0  0  0  0  0  0  0  0  0  0
   -3.5820   -1.3020    2.7990 H   0  0  0  0  0  0  0  0  0  0  0  0
   -3.4890   -2.6940    1.6940 H   0  0  0  0  0  0  0  0  0  0  0  0
    1.6410   -3.5540    1.6600 H   0  0  0  0  0  0  0  0  0  0  0  0
    4.2480   -0.1830    1.3670 H   0  0  0  0  0  0  0  0  0  0  0  0
   -5.7570   -2.2230    0.9080 H   0  0  0  0  0  0  0  0  0  0  0  0
   -5.8500   -0.8310    2.0140 H   0  0  0  0  0  0  0  0  0  0  0  0
   -6.0680   -1.1660    4.4330 H   0  0  0  0  0  0  0  0  0  0  0  0
   -5.8420   -4.5160    1.7730 H   0  0  0  0  0  0  0  0  0  0  0  0
    4.8730   -4.2760    3.0560 H   0  0  0  0  0  0  0  0  0  0  0  0
    3.6990   -4.5300    1.7420 H   0  0  0  0  0  0  0  0  0  0  0  0
    3.1430   -3.9590    3.3340 H   0  0  0  0  0  0  0  0  0  0  0  0
   -6.6210   -6.0080    3.5870 H   0  0  0  0  0  0  0  0  0  0  0  0
   -6.8440   -2.6590    6.2470 H   0  0  0  0  0  0  0  0  0  0  0  0
   -7.1200   -5.0800    5.8230 H   0  0  0  0  0  0  0  0  0  0  0  0
  1  3  1  0  0  0  0
  1  6  2  0  0  0  0
  1  7  1  0  0  0  0
  2  8  1  0  0  0  0
  2  9  1  0  0  0  0
  2 12  2  0  0  0  0
  2 13  2  0  0  0  0
  3  4  1  0  0  0  0
  3 11  1  0  0  0  0
  4  5  1  6  0  0  0
  4  8  1  0  0  0  0
  4 30  1  0  0  0  0
  5  7  1  0  0  0  0
  5  9  1  0  0  0  0
  5 31  1  6  0  0  0
  6 10  1  0  0  0  0
  8 32  1  0  0  0  0
  8 33  1  0  0  0  0
  9 34  1  0  0  0  0
  9 35  1  0  0  0  0
 10 14  2  0  0  0  0
 10 17  1  0  0  0  0
 11 15  1  0  0  0  0
 11 16  2  0  0  0  0
 15 20  2  0  0  0  0
 15 36  1  0  0  0  0
 16 19  1  0  0  0  0
 16 37  1  0  0  0  0
 17 21  1  0  0  0  0
 17 38  1  0  0  0  0
 17 39  1  0  0  0  0
 18 19  2  0  0  0  0
 18 20  1  0  0  0  0
 18 23  1  0  0  0  0
 19 40  1  0  0  0  0
 20 41  1  0  0  0  0
 21 22  1  0  0  0  0
 21 42  1  0  0  0  0
 21 43  1  0  0  0  0
 22 24  1  0  0  0  0
 22 25  2  0  0  0  0
 23 26  1  0  0  0  0
 24 28  2  0  0  0  0
 24 44  1  0  0  0  0
 25 27  1  0  0  0  0
 25 45  1  0  0  0  0
 26 46  1  0  0  0  0
 26 47  1  0  0  0  0
 26 48  1  0  0  0  0
 27 29  2  0  0  0  0
 27 49  1  0  0  0  0
 28 29  1  0  0  0  0
 28 50  1  0  0  0  0
 29 51  1  0  0  0  0
M  END
>  <$CLUSTER>
445

>  <INDEX>
385472

$$$$
Chembridge 5707467
 OpenBabel04062209303D

 50 52  0  0  0  0  0  0  0  0999 V2000
   -2.0460    0.0780    0.4050 S   0  0  0  0  0  0  0  0  0  0  0  0
   -0.6200   -0.8550    0.6150 N   0  0  0  0  0  0  0  0  0  0  0  0
    3.9810    1.0760   -2.1870 C   0  0  0  0  0  0  0  0  0  0  0  0
    4.6030    2.2110   -1.7160 N   0  0  0  0  0  0  0  0  0  0  0  0
   -3.1850   -0.6960    0.8640 O   0  0  0  0  0  0  0  0  0  0  0  0
   -2.0620    0.6870   -0.9110 O   0  0  0  0  0  0  0  0  0  0  0  0
   -1.7970    1.3820    1.5930 C   0  0  0  0  0  0  0  0  0  0  0  0
    0.5730   -0.3860   -0.0520 C   0  0  0  0  0  0  0  0  0  0  0  0
    2.8070    0.5860   -1.4210 C   0  0  0  0  0  0  0  0  0  0  0  0
    7.1790    4.8300   -1.8440 C   0  0  0  0  0  0  0  0  0  0  0  0
    5.6930    2.9300   -2.1630 C   0  0  0  0  0  0  0  0  0  0  0  0
    6.0840    4.0640   -1.4370 C   0  0  0  0  0  0  0  0  0  0  0  0
    4.3460    0.4800   -3.1950 O   0  0  0  0  0  0  0  0  0  0  0  0
    7.8950    4.4710   -2.9820 C   0  0  0  0  0  0  0  0  0  0  0  0
    1.5300    0.3810    0.6220 C   0  0  0  0  0  0  0  0  0  0  0  0
    0.7270   -0.6440   -1.4180 C   0  0  0  0  0  0  0  0  0  0  0  0
    1.8460   -0.1630   -2.0990 C   0  0  0  0  0  0  0  0  0  0  0  0
    2.6480    0.8600   -0.0630 C   0  0  0  0  0  0  0  0  0  0  0  0
    7.5140    3.3460   -3.7110 C   0  0  0  0  0  0  0  0  0  0  0  0
    6.4180    2.5770   -3.3060 C   0  0  0  0  0  0  0  0  0  0  0  0
   -0.4340   -1.5790    1.8960 C   0  0  0  0  0  0  0  0  0  0  0  0
    7.5780    6.0330   -1.0530 C   0  0  0  0  0  0  0  0  0  0  0  0
   -2.2410    1.2280    2.9150 C   0  0  0  0  0  0  0  0  0  0  0  0
   -1.1910    2.5840    1.1960 C   0  0  0  0  0  0  0  0  0  0  0  0
    9.0650    5.2860   -3.4230 C   0  0  0  0  0  0  0  0  0  0  0  0
   -1.0200    3.6160    2.1200 C   0  0  0  0  0  0  0  0  0  0  0  0
   -2.0670    2.2650    3.8330 C   0  0  0  0  0  0  0  0  0  0  0  0
   -1.4580    3.4560    3.4360 C   0  0  0  0  0  0  0  0  0  0  0  0
    4.1790    2.5910   -0.8820 H   0  0  0  0  0  0  0  0  0  0  0  0
    5.5320    4.3480   -0.5530 H   0  0  0  0  0  0  0  0  0  0  0  0
    1.4040    0.6020    1.6720 H   0  0  0  0  0  0  0  0  0  0  0  0
   -0.0210   -1.2160   -1.9460 H   0  0  0  0  0  0  0  0  0  0  0  0
    1.9680   -0.3710   -3.1520 H   0  0  0  0  0  0  0  0  0  0  0  0
    3.3910    1.4440    0.4600 H   0  0  0  0  0  0  0  0  0  0  0  0
    8.0690    3.0660   -4.5940 H   0  0  0  0  0  0  0  0  0  0  0  0
    6.1300    1.7070   -3.8780 H   0  0  0  0  0  0  0  0  0  0  0  0
   -1.4060   -1.8750    2.2900 H   0  0  0  0  0  0  0  0  0  0  0  0
    0.0650   -0.9270    2.6130 H   0  0  0  0  0  0  0  0  0  0  0  0
    0.1750   -2.4670    1.7260 H   0  0  0  0  0  0  0  0  0  0  0  0
    6.9030    6.1500   -0.2050 H   0  0  0  0  0  0  0  0  0  0  0  0
    7.5230    6.9190   -1.6860 H   0  0  0  0  0  0  0  0  0  0  0  0
    8.5980    5.9080   -0.6910 H   0  0  0  0  0  0  0  0  0  0  0  0
   -2.7170    0.3080    3.2220 H   0  0  0  0  0  0  0  0  0  0  0  0
   -0.8570    2.7100    0.1770 H   0  0  0  0  0  0  0  0  0  0  0  0
    9.2090    6.1180   -2.7340 H   0  0  0  0  0  0  0  0  0  0  0  0
    8.8820    5.6720   -4.4260 H   0  0  0  0  0  0  0  0  0  0  0  0
    9.9590    4.6630   -3.4320 H   0  0  0  0  0  0  0  0  0  0  0  0
   -0.5480    4.5390    1.8170 H   0  0  0  0  0  0  0  0  0  0  0  0
   -2.4040    2.1450    4.8520 H   0  0  0  0  0  0  0  0  0  0  0  0
   -1.3250    4.2560    4.1490 H   0  0  0  0  0  0  0  0  0  0  0  0
  1  2  1  0  0  0  0
  1  5  2  0  0  0  0
  1  6  2  0  0  0  0
  1  7  1  0  0  0  0
  2  8  1  0  0  0  0
  2 21  1  0  0  0  0
  3  4  1  0  0  0  0
  3  9  1  0  0  0  0
  3 13  2  0  0  0  0
  4 11  1  0  0  0  0
  4 29  1  0  0  0  0
  7 23  1  0  0  0  0
  7 24  2  0  0  0  0
  8 15  1  0  0  0  0
  8 16  2  0  0  0  0
  9 17  2  0  0  0  0
  9 18  1  0  0  0  0
 10 12  2  0  0  0  0
 10 14  1  0  0  0  0
 10 22  1  0  0  0  0
 11 12  1  0  0  0  0
 11 20  2  0  0  0  0
 12 30  1  0  0  0  0
 14 19  2  0  0  0  0
 14 25  1  0  0  0  0
 15 18  2  0  0  0  0
 15 31  1  0  0  0  0
 16 17  1  0  0  0  0
 16 32  1  0  0  0  0
 17 33  1  0  0  0  0
 18 34  1  0  0  0  0
 19 20  1  0  0  0  0
 19 35  1  0  0  0  0
 20 36  1  0  0  0  0
 21 37  1  0  0  0  0
 21 38  1  0  0  0  0
 21 39  1  0  0  0  0
 22 40  1  0  0  0  0
 22 41  1  0  0  0  0
 22 42  1  0  0  0  0
 23 27  2  0  0  0  0
 23 43  1  0  0  0  0
 24 26  1  0  0  0  0
 24 44  1  0  0  0  0
 25 45  1  0  0  0  0
 25 46  1  0  0  0  0
 25 47  1  0  0  0  0
 26 28  2  0  0  0  0
 26 48  1  0  0  0  0
 27 28  1  0  0  0  0
 27 49  1  0  0  0  0
 28 50  1  0  0  0  0
M  END
>  <$CLUSTER>
115

>  <INDEX>
51140

$$$$
Asinex ASN 04371767
 OpenBabel04062209303D

 50 53  0  0  0  0  0  0  0  0999 V2000
   -0.4190   -0.6120    0.4920 N   0  0  0  0  0  0  0  0  0  0  0  0
    0.3640   -1.4230   -0.3320 C   0  0  0  0  0  0  0  0  0  0  0  0
    1.0710   -0.6830   -1.1560 N   0  0  0  0  0  0  0  0  0  0  0  0
   -0.1030    0.6720    0.0750 C   0  0  0  0  0  0  0  0  0  0  0  0
    0.7790    0.6250   -0.9010 N   0  0  0  0  0  0  0  0  0  0  0  0
   -1.2890   -1.1570    1.4840 C   0  0  0  0  0  0  0  0  0  0  0  0
    0.3110   -2.8300   -0.1970 C   0  0  0  0  0  0  0  0  0  0  0  0
   -1.3170   -2.5660    1.5910 C   0  0  0  0  0  0  0  0  0  0  0  0
   -0.4850   -3.3960    0.7150 C   0  0  0  0  0  0  0  0  0  0  0  0
   -0.7360    2.1570    0.7040 S   0  0  0  0  0  0  0  0  0  0  0  0
   -2.0950   -0.3950    2.3320 C   0  0  0  0  0  0  0  0  0  0  0  0
    4.5420    6.8140    5.0000 C   0  0  0  0  0  0  0  0  0  0  0  0
    1.6010    3.4250    0.0300 C   0  0  0  0  0  0  0  0  0  0  0  0
   -2.1440   -3.1830    2.5390 C   0  0  0  0  0  0  0  0  0  0  0  0
    3.2700    6.6100    4.4800 N   0  0  0  0  0  0  0  0  0  0  0  0
    2.0070    4.2680    1.2140 C   0  0  0  0  0  0  0  0  0  0  0  0
    0.1180    3.3860   -0.3070 C   0  0  0  0  0  0  0  0  0  0  0  0
    5.6030    6.3400    4.6080 O   0  0  0  0  0  0  0  0  0  0  0  0
    2.4360    2.7820   -0.6120 O   0  0  0  0  0  0  0  0  0  0  0  0
    3.3810    4.2980    1.5300 C   0  0  0  0  0  0  0  0  0  0  0  0
    1.1060    4.9920    1.9580 C   0  0  0  0  0  0  0  0  0  0  0  0
    2.9040    5.7990    3.3630 C   0  0  0  0  0  0  0  0  0  0  0  0
   -2.9420   -2.4120    3.3780 C   0  0  0  0  0  0  0  0  0  0  0  0
   -2.9160   -1.0240    3.2740 C   0  0  0  0  0  0  0  0  0  0  0  0
    1.5500    5.7610    3.0380 C   0  0  0  0  0  0  0  0  0  0  0  0
    3.8180    5.0680    2.6090 C   0  0  0  0  0  0  0  0  0  0  0  0
    1.1720   -3.6650   -1.1060 C   0  0  0  0  0  0  0  0  0  0  0  0
   -3.7050   -3.1350    4.2620 O   0  0  0  0  0  0  0  0  0  0  0  0
    4.5030    7.7430    6.1880 C   0  0  0  0  0  0  0  0  0  0  0  0
   -4.5420   -2.3960    5.1440 C   0  0  0  0  0  0  0  0  0  0  0  0
   -0.5150   -4.4720    0.8070 H   0  0  0  0  0  0  0  0  0  0  0  0
   -2.0850    0.6830    2.2610 H   0  0  0  0  0  0  0  0  0  0  0  0
   -2.1620   -4.2600    2.6190 H   0  0  0  0  0  0  0  0  0  0  0  0
    2.5150    7.0920    4.9470 H   0  0  0  0  0  0  0  0  0  0  0  0
   -0.3170    4.3680   -0.1200 H   0  0  0  0  0  0  0  0  0  0  0  0
   -0.0030    3.1300   -1.3600 H   0  0  0  0  0  0  0  0  0  0  0  0
    4.0880    3.7310    0.9430 H   0  0  0  0  0  0  0  0  0  0  0  0
    0.0560    4.9670    1.7080 H   0  0  0  0  0  0  0  0  0  0  0  0
   -3.5360   -0.4270    3.9270 H   0  0  0  0  0  0  0  0  0  0  0  0
    0.8400    6.3280    3.6230 H   0  0  0  0  0  0  0  0  0  0  0  0
    4.8680    5.0970    2.8600 H   0  0  0  0  0  0  0  0  0  0  0  0
    1.7390   -3.0120   -1.7690 H   0  0  0  0  0  0  0  0  0  0  0  0
    0.5400   -4.3260   -1.6990 H   0  0  0  0  0  0  0  0  0  0  0  0
    1.8600   -4.2620   -0.5070 H   0  0  0  0  0  0  0  0  0  0  0  0
    3.4740    8.0520    6.3740 H   0  0  0  0  0  0  0  0  0  0  0  0
    5.1150    8.6220    5.9830 H   0  0  0  0  0  0  0  0  0  0  0  0
    4.8920    7.2270    7.0660 H   0  0  0  0  0  0  0  0  0  0  0  0
   -5.0890   -3.0850    5.7880 H   0  0  0  0  0  0  0  0  0  0  0  0
   -5.2480   -1.8030    4.5630 H   0  0  0  0  0  0  0  0  0  0  0  0
   -3.9300   -1.7340    5.7570 H   0  0  0  0  0  0  0  0  0  0  0  0
  1  2  1  0  0  0  0
  1  4  1  0  0  0  0
  1  6  1  0  0  0  0
  2  3  2  0  0  0  0
  2  7  1  0  0  0  0
  3  5  1  0  0  0  0
  4  5  2  0  0  0  0
  4 10  1  0  0  0  0
  6  8  2  0  0  0  0
  6 11  1  0  0  0  0
  7  9  2  0  0  0  0
  7 27  1  0  0  0  0
  8  9  1  0  0  0  0
  8 14  1  0  0  0  0
  9 31  1  0  0  0  0
 10 17  1  0  0  0  0
 11 24  2  0  0  0  0
 11 32  1  0  0  0  0
 12 15  1  0  0  0  0
 12 18  2  0  0  0  0
 12 29  1  0  0  0  0
 13 16  1  0  0  0  0
 13 17  1  0  0  0  0
 13 19  2  0  0  0  0
 14 23  2  0  0  0  0
 14 33  1  0  0  0  0
 15 22  1  0  0  0  0
 15 34  1  0  0  0  0
 16 20  1  0  0  0  0
 16 21  2  0  0  0  0
 17 35  1  0  0  0  0
 17 36  1  0  0  0  0
 20 26  2  0  0  0  0
 20 37  1  0  0  0  0
 21 25  1  0  0  0  0
 21 38  1  0  0  0  0
 22 25  2  0  0  0  0
 22 26  1  0  0  0  0
 23 24  1  0  0  0  0
 23 28  1  0  0  0  0
 24 39  1  0  0  0  0
 25 40  1  0  0  0  0
 26 41  1  0  0  0  0
 27 42  1  0  0  0  0
 27 43  1  0  0  0  0
 27 44  1  0  0  0  0
 28 30  1  0  0  0  0
 29 45  1  0  0  0  0
 29 46  1  0  0  0  0
 29 47  1  0  0  0  0
 30 48  1  0  0  0  0
 30 49  1  0  0  0  0
 30 50  1  0  0  0  0
M  END
>  <$CLUSTER>
255

>  <INDEX>
138217

$$$$
A-Synthese-Biotech EX-14747
 OpenBabel04062209303D

 47 50  0  0  0  0  0  0  0  0999 V2000
   -0.1310    0.9330    0.0360 C   0  0  0  0  0  0  0  0  0  0  0  0
    3.0960    2.7350    0.2180 C   0  0  0  0  0  0  0  0  0  0  0  0
    1.2630    1.1680    0.0750 C   0  0  0  0  0  0  0  0  0  0  0  0
    1.6840    2.4930    0.1810 O   0  0  0  0  0  0  0  0  0  0  0  0
   -4.0060    3.4610    1.4100 C   0  0  0  0  0  0  0  0  0  0  0  0
   -0.6480   -0.3870   -0.0780 C   0  0  0  0  0  0  0  0  0  0  0  0
   -4.6030    4.8620    1.2750 C   0  0  0  0  0  0  0  0  0  0  0  0
   -2.1720    2.1590    0.6410 N   0  0  0  0  0  0  0  0  0  0  0  0
    3.3580    4.1750    0.3300 C   0  0  0  0  0  0  0  0  0  0  0  0
   -0.9910    2.1300    0.1070 C   0  0  0  0  0  0  0  0  0  0  0  0
   -2.7920    3.3440    0.6080 N   0  0  0  0  0  0  0  0  0  0  0  0
    3.9120    1.8380    0.1600 O   0  0  0  0  0  0  0  0  0  0  0  0
    2.1450    0.0830    0.0270 C   0  0  0  0  0  0  0  0  0  0  0  0
   -4.5100    2.6120    2.0950 O   0  0  0  0  0  0  0  0  0  0  0  0
   -6.2210    6.3670    2.2980 N   0  0  0  0  0  0  0  0  0  0  0  0
    0.2780   -1.4650   -0.1210 C   0  0  0  0  0  0  0  0  0  0  0  0
    1.6540   -1.2160   -0.0630 C   0  0  0  0  0  0  0  0  0  0  0  0
    2.3560    5.1350    0.3900 C   0  0  0  0  0  0  0  0  0  0  0  0
    4.7030    4.5540    0.3770 C   0  0  0  0  0  0  0  0  0  0  0  0
    4.0350    6.8700    0.5440 C   0  0  0  0  0  0  0  0  0  0  0  0
   -5.5590    5.1740    2.2560 C   0  0  0  0  0  0  0  0  0  0  0  0
    5.0380    5.9050    0.4830 C   0  0  0  0  0  0  0  0  0  0  0  0
    2.6960    6.4860    0.4970 C   0  0  0  0  0  0  0  0  0  0  0  0
    4.4580    8.5140    0.6740 Cl  0  0  0  0  0  0  0  0  0  0  0  0
   -4.3340    5.7750    0.3000 C   0  0  0  0  0  0  0  0  0  0  0  0
   -2.0210   -0.7200   -0.1810 C   0  0  0  0  0  0  0  0  0  0  0  0
   -5.9160    7.2570    1.3200 C   0  0  0  0  0  0  0  0  0  0  0  0
   -0.1720   -2.7910   -0.2310 C   0  0  0  0  0  0  0  0  0  0  0  0
   -4.9920    7.0060    0.3130 C   0  0  0  0  0  0  0  0  0  0  0  0
   -2.4550   -2.0430   -0.2940 C   0  0  0  0  0  0  0  0  0  0  0  0
   -1.5310   -3.0790   -0.3150 C   0  0  0  0  0  0  0  0  0  0  0  0
   -0.6090    3.0470   -0.3160 H   0  0  0  0  0  0  0  0  0  0  0  0
   -2.4400    4.1150    0.0590 H   0  0  0  0  0  0  0  0  0  0  0  0
    3.2110    0.2540    0.0600 H   0  0  0  0  0  0  0  0  0  0  0  0
    2.3460   -2.0450   -0.0880 H   0  0  0  0  0  0  0  0  0  0  0  0
    1.3180    4.8380    0.3540 H   0  0  0  0  0  0  0  0  0  0  0  0
    5.4790    3.8050    0.3310 H   0  0  0  0  0  0  0  0  0  0  0  0
   -5.7810    4.4350    3.0120 H   0  0  0  0  0  0  0  0  0  0  0  0
    6.0760    6.2020    0.5180 H   0  0  0  0  0  0  0  0  0  0  0  0
    1.9190    7.2350    0.5430 H   0  0  0  0  0  0  0  0  0  0  0  0
   -3.6180    5.5480   -0.4760 H   0  0  0  0  0  0  0  0  0  0  0  0
   -2.7540    0.0730   -0.1720 H   0  0  0  0  0  0  0  0  0  0  0  0
   -6.4190    8.2130    1.3250 H   0  0  0  0  0  0  0  0  0  0  0  0
    0.5460   -3.5980   -0.2510 H   0  0  0  0  0  0  0  0  0  0  0  0
   -4.7870    7.7480   -0.4440 H   0  0  0  0  0  0  0  0  0  0  0  0
   -3.5110   -2.2600   -0.3650 H   0  0  0  0  0  0  0  0  0  0  0  0
   -1.8650   -4.1030   -0.3960 H   0  0  0  0  0  0  0  0  0  0  0  0
  1  3  2  0  0  0  0
  1  6  1  0  0  0  0
  1 10  1  0  0  0  0
  2  4  1  0  0  0  0
  2  9  1  0  0  0  0
  2 12  2  0  0  0  0
  3  4  1  0  0  0  0
  3 13  1  0  0  0  0
  5  7  1  0  0  0  0
  5 11  1  0  0  0  0
  5 14  2  0  0  0  0
  6 16  2  0  0  0  0
  6 26  1  0  0  0  0
  7 21  2  0  0  0  0
  7 25  1  0  0  0  0
  8 10  2  0  0  0  0
  8 11  1  0  0  0  0
  9 18  1  0  0  0  0
  9 19  2  0  0  0  0
 10 32  1  0  0  0  0
 11 33  1  0  0  0  0
 13 17  2  0  0  0  0
 13 34  1  0  0  0  0
 15 21  1  0  0  0  0
 15 27  2  0  0  0  0
 16 17  1  0  0  0  0
 16 28  1  0  0  0  0
 17 35  1  0  0  0  0
 18 23  2  0  0  0  0
 18 36  1  0  0  0  0
 19 22  1  0  0  0  0
 19 37  1  0  0  0  0
 20 22  2  0  0  0  0
 20 23  1  0  0  0  0
 20 24  1  0  0  0  0
 21 38  1  0  0  0  0
 22 39  1  0  0  0  0
 23 40  1  0  0  0  0
 25 29  2  0  0  0  0
 25 41  1  0  0  0  0
 26 30  2  0  0  0  0
 26 42  1  0  0  0  0
 27 29  1  0  0  0  0
 27 43  1  0  0  0  0
 28 31  2  0  0  0  0
 28 44  1  0  0  0  0
 29 45  1  0  0  0  0
 30 31  1  0  0  0  0
 30 46  1  0  0  0  0
 31 47  1  0  0  0  0
M  END
>  <$CLUSTER>
311

>  <INDEX>
197938

$$$$
InterBioScreen STOCK3S-81928
 OpenBabel04062209303D

 50 53  0  0  0  0  0  0  0  0999 V2000
    1.2820   -0.0530    0.4660 N   0  0  0  0  0  0  0  0  0  0  0  0
    0.8160   -1.2000   -0.1540 C   0  0  0  0  0  0  0  0  0  0  0  0
    0.3010    0.9210    0.3350 C   0  0  0  0  0  0  0  0  0  0  0  0
   -0.8070    0.3960   -0.3140 C   0  0  0  0  0  0  0  0  0  0  0  0
   -0.4700   -0.9500   -0.6230 C   0  0  0  0  0  0  0  0  0  0  0  0
    1.4770   -2.3650   -0.3220 N   0  0  0  0  0  0  0  0  0  0  0  0
   -1.1840   -1.9060   -1.2750 N   0  0  0  0  0  0  0  0  0  0  0  0
    2.4770    0.1970    1.0920 N   0  0  0  0  0  0  0  0  0  0  0  0
   -2.0320    1.1390   -0.6000 C   0  0  0  0  0  0  0  0  0  0  0  0
    0.7490   -3.2920   -0.9720 C   0  0  0  0  0  0  0  0  0  0  0  0
   -0.5340   -3.0730   -1.4280 C   0  0  0  0  0  0  0  0  0  0  0  0
    3.1190   -0.8000    1.5940 C   0  0  0  0  0  0  0  0  0  0  0  0
    0.5210    2.1570    0.8290 N   0  0  0  0  0  0  0  0  0  0  0  0
   -2.1870    2.3150   -0.2790 O   0  0  0  0  0  0  0  0  0  0  0  0
    6.1990    0.7630    3.0590 N   0  0  0  0  0  0  0  0  0  0  0  0
    4.4040   -0.6700    2.2820 C   0  0  0  0  0  0  0  0  0  0  0  0
   -3.0110    0.4270   -1.2580 N   0  0  0  0  0  0  0  0  0  0  0  0
    5.0040    0.5740    2.4280 C   0  0  0  0  0  0  0  0  0  0  0  0
    6.8000   -0.3510    3.5550 C   0  0  0  0  0  0  0  0  0  0  0  0
   -1.2210   -4.1240   -2.1150 C   0  0  0  0  0  0  0  0  0  0  0  0
    1.3540   -4.5710   -1.1880 C   0  0  0  0  0  0  0  0  0  0  0  0
    5.0400   -1.7890    2.7990 C   0  0  0  0  0  0  0  0  0  0  0  0
   -4.3000    0.9310   -1.6470 C   0  0  0  0  0  0  0  0  0  0  0  0
   -5.3060    0.8160   -0.5160 C   0  0  0  0  0  0  0  0  0  0  0  0
   -6.6800    1.3340   -0.9150 C   0  0  0  0  0  0  0  0  0  0  0  0
    6.2640   -1.6300    3.4500 C   0  0  0  0  0  0  0  0  0  0  0  0
   -7.6820    1.2170    0.2190 C   0  0  0  0  0  0  0  0  0  0  0  0
   -0.6180   -5.3650   -2.3200 C   0  0  0  0  0  0  0  0  0  0  0  0
    0.6740   -5.5880   -1.8550 C   0  0  0  0  0  0  0  0  0  0  0  0
    2.6860   -1.7850    1.5020 H   0  0  0  0  0  0  0  0  0  0  0  0
   -0.1930    2.8670    0.7490 H   0  0  0  0  0  0  0  0  0  0  0  0
    1.3990    2.3720    1.2790 H   0  0  0  0  0  0  0  0  0  0  0  0
   -2.8050   -0.5350   -1.4880 H   0  0  0  0  0  0  0  0  0  0  0  0
    4.4980    1.4370    2.0210 H   0  0  0  0  0  0  0  0  0  0  0  0
    7.7480   -0.2360    4.0590 H   0  0  0  0  0  0  0  0  0  0  0  0
   -2.2230   -3.9530   -2.4810 H   0  0  0  0  0  0  0  0  0  0  0  0
    2.3560   -4.7510   -0.8270 H   0  0  0  0  0  0  0  0  0  0  0  0
    4.5950   -2.7680    2.6990 H   0  0  0  0  0  0  0  0  0  0  0  0
   -4.6610    0.3590   -2.5020 H   0  0  0  0  0  0  0  0  0  0  0  0
   -4.2010    1.9800   -1.9270 H   0  0  0  0  0  0  0  0  0  0  0  0
   -4.9460    1.3950    0.3350 H   0  0  0  0  0  0  0  0  0  0  0  0
   -5.3950   -0.2320   -0.2310 H   0  0  0  0  0  0  0  0  0  0  0  0
   -7.0410    0.7550   -1.7650 H   0  0  0  0  0  0  0  0  0  0  0  0
   -6.5920    2.3820   -1.2000 H   0  0  0  0  0  0  0  0  0  0  0  0
    6.7840   -2.4820    3.8630 H   0  0  0  0  0  0  0  0  0  0  0  0
   -7.7780    0.1720    0.5130 H   0  0  0  0  0  0  0  0  0  0  0  0
   -8.6510    1.5920   -0.1120 H   0  0  0  0  0  0  0  0  0  0  0  0
   -7.3370    1.8030    1.0710 H   0  0  0  0  0  0  0  0  0  0  0  0
   -1.1520   -6.1490   -2.8370 H   0  0  0  0  0  0  0  0  0  0  0  0
    1.1480   -6.5460   -2.0100 H   0  0  0  0  0  0  0  0  0  0  0  0
  1  2  1  0  0  0  0
  1  3  1  0  0  0  0
  1  8  1  0  0  0  0
  2  5  2  0  0  0  0
  2  6  1  0  0  0  0
  3  4  2  0  0  0  0
  3 13  1  0  0  0  0
  4  5  1  0  0  0  0
  4  9  1  0  0  0  0
  5  7  1  0  0  0  0
  6 10  2  0  0  0  0
  7 11  2  0  0  0  0
  8 12  2  0  0  0  0
  9 14  2  0  0  0  0
  9 17  1  0  0  0  0
 10 11  1  0  0  0  0
 10 21  1  0  0  0  0
 11 20  1  0  0  0  0
 12 16  1  0  0  0  0
 12 30  1  0  0  0  0
 13 31  1  0  0  0  0
 13 32  1  0  0  0  0
 15 18  2  0  0  0  0
 15 19  1  0  0  0  0
 16 18  1  0  0  0  0
 16 22  2  0  0  0  0
 17 23  1  0  0  0  0
 17 33  1  0  0  0  0
 18 34  1  0  0  0  0
 19 26  2  0  0  0  0
 19 35  1  0  0  0  0
 20 28  2  0  0  0  0
 20 36  1  0  0  0  0
 21 29  2  0  0  0  0
 21 37  1  0  0  0  0
 22 26  1  0  0  0  0
 22 38  1  0  0  0  0
 23 24  1  0  0  0  0
 23 39  1  0  0  0  0
 23 40  1  0  0  0  0
 24 25  1  0  0  0  0
 24 41  1  0  0  0  0
 24 42  1  0  0  0  0
 25 27  1  0  0  0  0
 25 43  1  0  0  0  0
 25 44  1  0  0  0  0
 26 45  1  0  0  0  0
 27 46  1  0  0  0  0
 27 47  1  0  0  0  0
 27 48  1  0  0  0  0
 28 29  1  0  0  0  0
 28 49  1  0  0  0  0
 29 50  1  0  0  0  0
M  END
>  <$CLUSTER>
529

>  <INDEX>
345754

$$$$
Nanosyn NS61821
 OpenBabel04062209303D

 51 53  0  0  0  0  0  0  0  0999 V2000
    1.5660    1.3410   -0.0310 S   0  0  0  0  0  0  0  0  0  0  0  0
    0.0890    1.1350    0.7380 N   0  0  0  0  0  0  0  0  0  0  0  0
   -0.6420    0.0230    0.3240 C   0  0  0  0  0  0  0  0  0  0  0  0
    5.6360   -3.4340    3.0170 C   0  0  0  0  0  0  0  0  0  0  0  0
   -1.3630    0.1340   -0.8020 N   0  0  0  0  0  0  0  0  0  0  0  0
   -0.5130   -1.0660    1.0940 N   0  0  0  0  0  0  0  0  0  0  0  0
    6.2700   -4.8030    3.0740 C   0  0  0  0  0  0  0  0  0  0  0  0
    2.5370   -0.0360    0.5860 C   0  0  0  0  0  0  0  0  0  0  0  0
    4.8320   -3.3000    1.8920 N   0  0  0  0  0  0  0  0  0  0  0  0
    2.1480    2.5670    0.5000 O   0  0  0  0  0  0  0  0  0  0  0  0
    1.4130    1.1990   -1.4710 O   0  0  0  0  0  0  0  0  0  0  0  0
   -2.0340   -0.9820   -1.1670 C   0  0  0  0  0  0  0  0  0  0  0  0
   -1.2080   -2.1500    0.6820 C   0  0  0  0  0  0  0  0  0  0  0  0
    6.6590   -5.2550    4.3720 C   0  0  0  0  0  0  0  0  0  0  0  0
    6.5480   -5.5850    1.9780 C   0  0  0  0  0  0  0  0  0  0  0  0
    5.8550   -2.6040    3.8930 O   0  0  0  0  0  0  0  0  0  0  0  0
   -1.9930   -2.1640   -0.4540 C   0  0  0  0  0  0  0  0  0  0  0  0
    7.1650   -6.8290    2.1260 C   0  0  0  0  0  0  0  0  0  0  0  0
    7.2760   -6.5000    4.5140 C   0  0  0  0  0  0  0  0  0  0  0  0
    3.2600    0.1090    1.7620 C   0  0  0  0  0  0  0  0  0  0  0  0
    2.5680   -1.2130   -0.1530 C   0  0  0  0  0  0  0  0  0  0  0  0
    4.0670   -2.1550    1.4940 C   0  0  0  0  0  0  0  0  0  0  0  0
    7.5260   -7.2870    3.3930 C   0  0  0  0  0  0  0  0  0  0  0  0
    3.3380   -2.2810    0.3100 C   0  0  0  0  0  0  0  0  0  0  0  0
    4.0290   -0.9630    2.2190 C   0  0  0  0  0  0  0  0  0  0  0  0
   -2.8600   -0.9030   -2.4170 C   0  0  0  0  0  0  0  0  0  0  0  0
   -1.0960   -3.4200    1.5520 C   0  0  0  0  0  0  0  0  0  0  0  0
    7.4390   -7.6690    0.9200 C   0  0  0  0  0  0  0  0  0  0  0  0
    7.6680   -6.9900    5.8710 C   0  0  0  0  0  0  0  0  0  0  0  0
   -0.2460    1.7700    1.4490 H   0  0  0  0  0  0  0  0  0  0  0  0
    4.7800   -4.1040    1.2830 H   0  0  0  0  0  0  0  0  0  0  0  0
    6.4770   -4.6370    5.2390 H   0  0  0  0  0  0  0  0  0  0  0  0
    6.2860   -5.2330    0.9910 H   0  0  0  0  0  0  0  0  0  0  0  0
   -2.5390   -3.0420   -0.7650 H   0  0  0  0  0  0  0  0  0  0  0  0
    3.2280    1.0360    2.3150 H   0  0  0  0  0  0  0  0  0  0  0  0
    2.0050   -1.3000   -1.0710 H   0  0  0  0  0  0  0  0  0  0  0  0
    7.9990   -8.2510    3.5040 H   0  0  0  0  0  0  0  0  0  0  0  0
    3.3700   -3.2050   -0.2480 H   0  0  0  0  0  0  0  0  0  0  0  0
    4.5950   -0.8700    3.1340 H   0  0  0  0  0  0  0  0  0  0  0  0
   -2.7760    0.0960   -2.8460 H   0  0  0  0  0  0  0  0  0  0  0  0
   -3.9030   -1.1080   -2.1770 H   0  0  0  0  0  0  0  0  0  0  0  0
   -2.5010   -1.6390   -3.1370 H   0  0  0  0  0  0  0  0  0  0  0  0
   -0.4390   -3.2230    2.3990 H   0  0  0  0  0  0  0  0  0  0  0  0
   -0.6850   -4.2340    0.9550 H   0  0  0  0  0  0  0  0  0  0  0  0
   -2.0850   -3.7000    1.9160 H   0  0  0  0  0  0  0  0  0  0  0  0
    7.0890   -7.1490    0.0280 H   0  0  0  0  0  0  0  0  0  0  0  0
    6.9170   -8.6210    1.0140 H   0  0  0  0  0  0  0  0  0  0  0  0
    8.5110   -7.8490    0.8390 H   0  0  0  0  0  0  0  0  0  0  0  0
    7.3950   -6.2450    6.6190 H   0  0  0  0  0  0  0  0  0  0  0  0
    8.7450   -7.1570    5.9000 H   0  0  0  0  0  0  0  0  0  0  0  0
    7.1500   -7.9250    6.0830 H   0  0  0  0  0  0  0  0  0  0  0  0
  1  2  1  0  0  0  0
  1  8  1  0  0  0  0
  1 10  2  0  0  0  0
  1 11  2  0  0  0  0
  2  3  1  0  0  0  0
  2 30  1  0  0  0  0
  3  5  2  0  0  0  0
  3  6  1  0  0  0  0
  4  7  1  0  0  0  0
  4  9  1  0  0  0  0
  4 16  2  0  0  0  0
  5 12  1  0  0  0  0
  6 13  2  0  0  0  0
  7 14  1  0  0  0  0
  7 15  2  0  0  0  0
  8 20  1  0  0  0  0
  8 21  2  0  0  0  0
  9 22  1  0  0  0  0
  9 31  1  0  0  0  0
 12 17  2  0  0  0  0
 12 26  1  0  0  0  0
 13 17  1  0  0  0  0
 13 27  1  0  0  0  0
 14 19  2  0  0  0  0
 14 32  1  0  0  0  0
 15 18  1  0  0  0  0
 15 33  1  0  0  0  0
 17 34  1  0  0  0  0
 18 23  2  0  0  0  0
 18 28  1  0  0  0  0
 19 23  1  0  0  0  0
 19 29  1  0  0  0  0
 20 25  2  0  0  0  0
 20 35  1  0  0  0  0
 21 24  1  0  0  0  0
 21 36  1  0  0  0  0
 22 24  2  0  0  0  0
 22 25  1  0  0  0  0
 23 37  1  0  0  0  0
 24 38  1  0  0  0  0
 25 39  1  0  0  0  0
 26 40  1  0  0  0  0
 26 41  1  0  0  0  0
 26 42  1  0  0  0  0
 27 43  1  0  0  0  0
 27 44  1  0  0  0  0
 27 45  1  0  0  0  0
 28 46  1  0  0  0  0
 28 47  1  0  0  0  0
 28 48  1  0  0  0  0
 29 49  1  0  0  0  0
 29 50  1  0  0  0  0
 29 51  1  0  0  0  0
M  END
>  <$CLUSTER>
997

>  <INDEX>
566297

$$$$
Asinex ASN 05317597
 OpenBabel04062209303D

 45 47  0  0  0  0  0  0  0  0999 V2000
   -0.1230   -2.7460    0.6670 C   0  0  0  0  0  0  0  0  0  0  0  0
   -0.0590   -0.3440    0.3950 C   0  0  0  0  0  0  0  0  0  0  0  0
    0.0770   -0.6480    1.6690 N   0  0  0  0  0  0  0  0  0  0  0  0
   -0.2360   -1.6760   -0.6640 S   0  0  0  0  0  0  0  0  0  0  0  0
    0.0410   -2.0190    1.8250 C   0  0  0  0  0  0  0  0  0  0  0  0
   -0.2010   -4.1970    0.5030 C   0  0  0  0  0  0  0  0  0  0  0  0
   -0.0610    0.9630   -0.0630 N   0  0  0  0  0  0  0  0  0  0  0  0
   -0.0060    7.0840   -2.0130 N   0  3  0  0  0  0  0  0  0  0  0  0
   -0.1970    1.3870   -1.3780 C   0  0  0  0  0  0  0  0  0  0  0  0
   -0.3680   -4.6570   -0.7880 N   0  0  0  0  0  0  0  0  0  0  0  0
   -0.0520    5.6680   -1.8650 C   0  0  0  0  0  0  0  0  0  0  0  0
   -0.3280    7.8340   -1.0760 O   0  5  0  0  0  0  0  0  0  0  0  0
   -0.1470    2.8920   -1.4660 C   0  0  0  0  0  0  0  0  0  0  0  0
    0.3720    7.4930   -3.1240 O   0  0  0  0  0  0  0  0  0  0  0  0
   -0.1230   -4.9870    1.4440 O   0  0  0  0  0  0  0  0  0  0  0  0
   -0.3430    0.7070   -2.3890 O   0  0  0  0  0  0  0  0  0  0  0  0
    0.3070    4.8150   -2.9070 C   0  0  0  0  0  0  0  0  0  0  0  0
   -0.4660    5.1380   -0.6440 C   0  0  0  0  0  0  0  0  0  0  0  0
    0.2550    3.4310   -2.7290 C   0  0  0  0  0  0  0  0  0  0  0  0
   -0.5180    3.7530   -0.4600 C   0  0  0  0  0  0  0  0  0  0  0  0
   -0.4840   -5.9250   -1.3450 C   0  0  0  0  0  0  0  0  0  0  0  0
   -0.7260   -8.4490   -2.5560 C   0  0  0  0  0  0  0  0  0  0  0  0
    0.1820   -2.5480    3.2150 C   0  0  0  0  0  0  0  0  0  0  0  0
   -0.4420   -7.0880   -0.5710 C   0  0  0  0  0  0  0  0  0  0  0  0
   -0.6490   -6.0420   -2.7330 C   0  0  0  0  0  0  0  0  0  0  0  0
   -0.5620   -8.3440   -1.1770 C   0  0  0  0  0  0  0  0  0  0  0  0
   -0.7690   -7.2960   -3.3350 C   0  0  0  0  0  0  0  0  0  0  0  0
   -0.8330   -9.7350   -3.0250 O   0  0  0  0  0  0  0  0  0  0  0  0
   -1.0000   -9.8950   -4.4290 C   0  0  0  0  0  0  0  0  0  0  0  0
    0.0480    1.6850    0.6350 H   0  0  0  0  0  0  0  0  0  0  0  0
   -0.4160   -3.9150   -1.4720 H   0  0  0  0  0  0  0  0  0  0  0  0
    0.6260    5.2250   -3.8540 H   0  0  0  0  0  0  0  0  0  0  0  0
   -0.7470    5.7990    0.1620 H   0  0  0  0  0  0  0  0  0  0  0  0
    0.5170    2.7700   -3.5420 H   0  0  0  0  0  0  0  0  0  0  0  0
   -0.8540    3.3540    0.4850 H   0  0  0  0  0  0  0  0  0  0  0  0
    0.1370   -3.6370    3.1960 H   0  0  0  0  0  0  0  0  0  0  0  0
   -0.6270   -2.1620    3.8350 H   0  0  0  0  0  0  0  0  0  0  0  0
    1.1390   -2.2310    3.6290 H   0  0  0  0  0  0  0  0  0  0  0  0
   -0.3160   -7.0170    0.4990 H   0  0  0  0  0  0  0  0  0  0  0  0
   -0.6840   -5.1520   -3.3430 H   0  0  0  0  0  0  0  0  0  0  0  0
   -0.5270   -9.2370   -0.5710 H   0  0  0  0  0  0  0  0  0  0  0  0
   -0.8950   -7.3720   -4.4050 H   0  0  0  0  0  0  0  0  0  0  0  0
   -1.0710  -10.9560   -4.6680 H   0  0  0  0  0  0  0  0  0  0  0  0
   -0.1450   -9.4620   -4.9480 H   0  0  0  0  0  0  0  0  0  0  0  0
   -1.9120   -9.3890   -4.7460 H   0  0  0  0  0  0  0  0  0  0  0  0
  1  4  1  0  0  0  0
  1  5  2  0  0  0  0
  1  6  1  0  0  0  0
  2  3  2  0  0  0  0
  2  4  1  0  0  0  0
  2  7  1  0  0  0  0
  3  5  1  0  0  0  0
  5 23  1  0  0  0  0
  6 10  1  0  0  0  0
  6 15  2  0  0  0  0
  7  9  1  0  0  0  0
  7 30  1  0  0  0  0
  8 11  1  0  0  0  0
  8 12  1  0  0  0  0
  8 14  2  0  0  0  0
  9 13  1  0  0  0  0
  9 16  2  0  0  0  0
 10 21  1  0  0  0  0
 10 31  1  0  0  0  0
 11 17  2  0  0  0  0
 11 18  1  0  0  0  0
 13 19  2  0  0  0  0
 13 20  1  0  0  0  0
 17 19  1  0  0  0  0
 17 32  1  0  0  0  0
 18 20  2  0  0  0  0
 18 33  1  0  0  0  0
 19 34  1  0  0  0  0
 20 35  1  0  0  0  0
 21 24  2  0  0  0  0
 21 25  1  0  0  0  0
 22 26  2  0  0  0  0
 22 27  1  0  0  0  0
 22 28  1  0  0  0  0
 23 36  1  0  0  0  0
 23 37  1  0  0  0  0
 23 38  1  0  0  0  0
 24 26  1  0  0  0  0
 24 39  1  0  0  0  0
 25 27  2  0  0  0  0
 25 40  1  0  0  0  0
 26 41  1  0  0  0  0
 27 42  1  0  0  0  0
 28 29  1  0  0  0  0
 29 43  1  0  0  0  0
 29 44  1  0  0  0  0
 29 45  1  0  0  0  0
M  CHG  2   8   1  12  -1
M  END
>  <$CLUSTER>
227

>  <INDEX>
146043

$$$$
Chem T&I AMSACS-11579
 OpenBabel04062209303D

 36 37  0  0  0  0  0  0  0  0999 V2000
    5.3150    3.4740    1.8710 S   0  0  0  0  0  0  0  0  0  0  0  0
   -0.4780    0.5280   -0.9520 N   0  0  0  0  0  0  0  0  0  0  0  0
    0.3290   -0.1170   -0.0880 N   0  0  0  0  0  0  0  0  0  0  0  0
   -0.3220   -1.0310    0.6910 C   0  0  0  0  0  0  0  0  0  0  0  0
   -1.6410   -0.9770    0.3110 C   0  0  0  0  0  0  0  0  0  0  0  0
   -1.6790   -0.0010   -0.7030 C   0  0  0  0  0  0  0  0  0  0  0  0
    6.0670    2.1320    2.7740 C   0  0  0  0  0  0  0  0  0  0  0  0
    5.3020    4.6260    2.7660 O   0  0  0  0  0  0  0  0  0  0  0  0
    6.0060    3.5700    0.5870 O   0  0  0  0  0  0  0  0  0  0  0  0
    3.7790    2.9060    1.6580 N   0  0  0  0  0  0  0  0  0  0  0  0
    6.6970    1.1100    2.0650 C   0  0  0  0  0  0  0  0  0  0  0  0
    6.0210    2.1330    4.1620 C   0  0  0  0  0  0  0  0  0  0  0  0
   -3.0110   -1.8860    0.9080 Br  0  0  0  0  0  0  0  0  0  0  0  0
    6.6140    1.0810    4.8600 C   0  0  0  0  0  0  0  0  0  0  0  0
    7.2870    0.0630    2.7720 C   0  0  0  0  0  0  0  0  0  0  0  0
    7.2450    0.0470    4.1670 C   0  0  0  0  0  0  0  0  0  0  0  0
    1.7430    0.1900   -0.0560 C   0  0  0  0  0  0  0  0  0  0  0  0
    2.0470    1.4090    0.7970 C   0  0  0  0  0  0  0  0  0  0  0  0
    3.5210    1.7390    0.8260 C   0  0  0  0  0  0  0  0  0  0  0  0
    7.8800   -1.0800    4.9140 C   0  0  0  0  0  0  0  0  0  0  0  0
    0.1110   -1.6660    1.4500 H   0  0  0  0  0  0  0  0  0  0  0  0
   -2.5800    0.2880   -1.2230 H   0  0  0  0  0  0  0  0  0  0  0  0
    3.2440    3.6660    1.2620 H   0  0  0  0  0  0  0  0  0  0  0  0
    6.7280    1.1290    0.9860 H   0  0  0  0  0  0  0  0  0  0  0  0
    5.5330    2.9370    4.6930 H   0  0  0  0  0  0  0  0  0  0  0  0
    6.5850    1.0670    5.9400 H   0  0  0  0  0  0  0  0  0  0  0  0
    7.7780   -0.7380    2.2390 H   0  0  0  0  0  0  0  0  0  0  0  0
    2.0840    0.3800   -1.0740 H   0  0  0  0  0  0  0  0  0  0  0  0
    2.2790   -0.6670    0.3530 H   0  0  0  0  0  0  0  0  0  0  0  0
    1.7120    1.2160    1.8160 H   0  0  0  0  0  0  0  0  0  0  0  0
    1.5050    2.2640    0.3920 H   0  0  0  0  0  0  0  0  0  0  0  0
    4.0690    0.8870    1.2280 H   0  0  0  0  0  0  0  0  0  0  0  0
    3.8600    1.9430   -0.1890 H   0  0  0  0  0  0  0  0  0  0  0  0
    7.7500   -0.9250    5.9850 H   0  0  0  0  0  0  0  0  0  0  0  0
    8.9440   -1.1180    4.6790 H   0  0  0  0  0  0  0  0  0  0  0  0
    7.4100   -2.0190    4.6230 H   0  0  0  0  0  0  0  0  0  0  0  0
  1  7  1  0  0  0  0
  1  8  2  0  0  0  0
  1  9  2  0  0  0  0
  1 10  1  0  0  0  0
  2  3  1  0  0  0  0
  2  6  2  0  0  0  0
  3  4  1  0  0  0  0
  3 17  1  0  0  0  0
  4  5  2  0  0  0  0
  4 21  1  0  0  0  0
  5  6  1  0  0  0  0
  5 13  1  0  0  0  0
  6 22  1  0  0  0  0
  7 11  1  0  0  0  0
  7 12  2  0  0  0  0
 10 19  1  0  0  0  0
 10 23  1  0  0  0  0
 11 15  2  0  0  0  0
 11 24  1  0  0  0  0
 12 14  1  0  0  0  0
 12 25  1  0  0  0  0
 14 16  2  0  0  0  0
 14 26  1  0  0  0  0
 15 16  1  0  0  0  0
 15 27  1  0  0  0  0
 16 20  1  0  0  0  0
 17 18  1  0  0  0  0
 17 28  1  0  0  0  0
 17 29  1  0  0  0  0
 18 19  1  0  0  0  0
 18 30  1  0  0  0  0
 18 31  1  0  0  0  0
 19 32  1  0  0  0  0
 19 33  1  0  0  0  0
 20 34  1  0  0  0  0
 20 35  1  0  0  0  0
 20 36  1  0  0  0  0
M  END
>  <$CLUSTER>
789

>  <INDEX>
518299

$$$$
Bionet 8K-348S
 OpenBabel04062209303D

 44 46  0  0  0  0  0  0  0  0999 V2000
    0.0220   -2.3380    0.3510 S   0  0  0  0  0  0  0  0  0  0  0  0
    0.1780   -0.7160    0.9060 N   0  0  0  0  0  0  0  0  0  0  0  0
   -0.2670   -0.4000    2.2960 C   0  0  0  0  0  0  0  0  0  0  0  0
    0.6350    0.6560    2.9160 C   0  0  0  0  0  0  0  0  0  0  0  0
    2.5970    0.7770    4.5090 C   0  0  0  0  0  0  0  0  0  0  0  0
    0.5450   -3.2340    1.3660 O   0  0  0  0  0  0  0  0  0  0  0  0
    0.4790   -2.4490   -1.0220 O   0  0  0  0  0  0  0  0  0  0  0  0
   -1.7470   -2.5390    0.3460 C   0  0  0  0  0  0  0  0  0  0  0  0
    1.5920    0.1660    3.7540 N   0  0  0  0  0  0  0  0  0  0  0  0
    2.7880    2.1620    4.5110 C   0  0  0  0  0  0  0  0  0  0  0  0
    3.4440   -0.0230    5.2920 C   0  0  0  0  0  0  0  0  0  0  0  0
    0.0390    0.3170   -0.0980 C   0  0  0  0  0  0  0  0  0  0  0  0
    4.4590    0.5500    6.0590 C   0  0  0  0  0  0  0  0  0  0  0  0
    3.8070    2.7330    5.2810 C   0  0  0  0  0  0  0  0  0  0  0  0
    4.6410    1.9290    6.0540 C   0  0  0  0  0  0  0  0  0  0  0  0
    0.5280    1.8640    2.6940 O   0  0  0  0  0  0  0  0  0  0  0  0
    4.0380    4.4220    5.2800 Cl  0  0  0  0  0  0  0  0  0  0  0  0
    5.4670   -0.4540    6.9950 Cl  0  0  0  0  0  0  0  0  0  0  0  0
   -2.4100   -3.0000    1.4930 C   0  0  0  0  0  0  0  0  0  0  0  0
   -2.4780   -2.2790   -0.8250 C   0  0  0  0  0  0  0  0  0  0  0  0
   -1.1890    0.9370   -0.3480 C   0  0  0  0  0  0  0  0  0  0  0  0
    1.1520    0.6390   -0.8840 C   0  0  0  0  0  0  0  0  0  0  0  0
   -3.8610   -2.4660   -0.8390 C   0  0  0  0  0  0  0  0  0  0  0  0
    1.0430    1.5980   -1.8910 C   0  0  0  0  0  0  0  0  0  0  0  0
   -1.2940    1.8960   -1.3570 C   0  0  0  0  0  0  0  0  0  0  0  0
   -3.7940   -3.1840    1.4720 C   0  0  0  0  0  0  0  0  0  0  0  0
   -0.1790    2.2280   -2.1250 C   0  0  0  0  0  0  0  0  0  0  0  0
   -4.5170   -2.9170    0.3080 C   0  0  0  0  0  0  0  0  0  0  0  0
   -0.2270   -1.3060    2.9000 H   0  0  0  0  0  0  0  0  0  0  0  0
   -1.2910   -0.0270    2.2690 H   0  0  0  0  0  0  0  0  0  0  0  0
    1.5710   -0.8390    3.8480 H   0  0  0  0  0  0  0  0  0  0  0  0
    2.1460    2.7940    3.9150 H   0  0  0  0  0  0  0  0  0  0  0  0
    3.3080   -1.0940    5.3010 H   0  0  0  0  0  0  0  0  0  0  0  0
    5.4260    2.3740    6.6470 H   0  0  0  0  0  0  0  0  0  0  0  0
   -1.8500   -3.2130    2.3920 H   0  0  0  0  0  0  0  0  0  0  0  0
   -1.9700   -1.9350   -1.7140 H   0  0  0  0  0  0  0  0  0  0  0  0
   -2.0560    0.6740    0.2390 H   0  0  0  0  0  0  0  0  0  0  0  0
    2.0960    0.1440   -0.7100 H   0  0  0  0  0  0  0  0  0  0  0  0
   -4.4240   -2.2620   -1.7380 H   0  0  0  0  0  0  0  0  0  0  0  0
    1.9050    1.8530   -2.4900 H   0  0  0  0  0  0  0  0  0  0  0  0
   -2.2410    2.3820   -1.5430 H   0  0  0  0  0  0  0  0  0  0  0  0
   -4.3050   -3.5330    2.3570 H   0  0  0  0  0  0  0  0  0  0  0  0
   -0.2620    2.9740   -2.9020 H   0  0  0  0  0  0  0  0  0  0  0  0
   -5.5870   -3.0600    0.2950 H   0  0  0  0  0  0  0  0  0  0  0  0
  1  2  1  0  0  0  0
  1  6  2  0  0  0  0
  1  7  2  0  0  0  0
  1  8  1  0  0  0  0
  2  3  1  0  0  0  0
  2 12  1  0  0  0  0
  3  4  1  0  0  0  0
  3 29  1  0  0  0  0
  3 30  1  0  0  0  0
  4  9  1  0  0  0  0
  4 16  2  0  0  0  0
  5  9  1  0  0  0  0
  5 10  1  0  0  0  0
  5 11  2  0  0  0  0
  8 19  1  0  0  0  0
  8 20  2  0  0  0  0
  9 31  1  0  0  0  0
 10 14  2  0  0  0  0
 10 32  1  0  0  0  0
 11 13  1  0  0  0  0
 11 33  1  0  0  0  0
 12 21  1  0  0  0  0
 12 22  2  0  0  0  0
 13 15  2  0  0  0  0
 13 18  1  0  0  0  0
 14 15  1  0  0  0  0
 14 17  1  0  0  0  0
 15 34  1  0  0  0  0
 19 26  2  0  0  0  0
 19 35  1  0  0  0  0
 20 23  1  0  0  0  0
 20 36  1  0  0  0  0
 21 25  2  0  0  0  0
 21 37  1  0  0  0  0
 22 24  1  0  0  0  0
 22 38  1  0  0  0  0
 23 28  2  0  0  0  0
 23 39  1  0  0  0  0
 24 27  2  0  0  0  0
 24 40  1  0  0  0  0
 25 27  1  0  0  0  0
 25 41  1  0  0  0  0
 26 28  1  0  0  0  0
 26 42  1  0  0  0  0
 27 43  1  0  0  0  0
 28 44  1  0  0  0  0
M  END
>  <$CLUSTER>
148

>  <INDEX>
106563

$$$$
InterBioScreen STOCK5S-22526
 OpenBabel04062209303D

 39 41  0  0  0  0  0  0  0  0999 V2000
   -5.4180   -8.7760    2.1240 N   0  0  0  0  0  0  0  0  0  0  0  0
   -5.5040  -10.0450    1.6320 C   0  0  0  0  0  0  0  0  0  0  0  0
    0.3620    0.6510   -0.0820 N   0  3  0  0  0  0  0  0  0  0  0  0
   -5.4570  -10.1580    0.3020 N   0  0  0  0  0  0  0  0  0  0  0  0
   -5.3280   -8.0910    1.0250 C   0  0  0  0  0  0  0  0  0  0  0  0
   -5.3280   -8.8290   -0.1160 O   0  0  0  0  0  0  0  0  0  0  0  0
   -0.2920   -0.6470    0.0810 C   0  0  0  0  0  0  0  0  0  0  0  0
   -5.6320  -11.2020    2.5420 C   0  0  0  0  0  0  0  0  0  0  0  0
   -3.5240   -4.6830    0.6000 C   0  0  0  0  0  0  0  0  0  0  0  0
    1.6040    0.6970   -0.1070 O   0  5  0  0  0  0  0  0  0  0  0  0
   -0.3660    1.6520   -0.1880 O   0  0  0  0  0  0  0  0  0  0  0  0
   -2.1760   -4.3530    0.5400 N   0  0  0  0  0  0  0  0  0  0  0  0
   -4.4910   -3.9320    0.5260 O   0  0  0  0  0  0  0  0  0  0  0  0
    0.4780   -1.7400    0.1970 C   0  0  0  0  0  0  0  0  0  0  0  0
   -1.7850   -0.6130    0.1000 C   0  0  0  0  0  0  0  0  0  0  0  0
   -5.6760  -11.0080    3.9310 C   0  0  0  0  0  0  0  0  0  0  0  0
   -5.7150  -12.5100    2.0420 C   0  0  0  0  0  0  0  0  0  0  0  0
   -1.6120   -3.0650    0.3830 C   0  0  0  0  0  0  0  0  0  0  0  0
   -5.1680   -6.6040    0.8500 C   0  0  0  0  0  0  0  0  0  0  0  0
   -3.7120   -6.1700    0.7750 C   0  0  0  0  0  0  0  0  0  0  0  0
   -5.8800  -13.3910    4.2880 C   0  0  0  0  0  0  0  0  0  0  0  0
   -0.2120   -2.9850    0.3520 C   0  0  0  0  0  0  0  0  0  0  0  0
   -2.3570   -1.8880    0.2560 C   0  0  0  0  0  0  0  0  0  0  0  0
   -5.7980  -12.0970    4.7970 C   0  0  0  0  0  0  0  0  0  0  0  0
   -5.8370  -13.5980    2.9120 C   0  0  0  0  0  0  0  0  0  0  0  0
   -6.0310  -14.7070    5.3570 Cl  0  0  0  0  0  0  0  0  0  0  0  0
   -1.5240   -5.1200    0.6170 H   0  0  0  0  0  0  0  0  0  0  0  0
    1.5560   -1.6840    0.1750 H   0  0  0  0  0  0  0  0  0  0  0  0
   -2.3630    0.2940    0.0040 H   0  0  0  0  0  0  0  0  0  0  0  0
   -5.6150  -10.0080    4.3340 H   0  0  0  0  0  0  0  0  0  0  0  0
   -5.6840  -12.6780    0.9760 H   0  0  0  0  0  0  0  0  0  0  0  0
   -5.6370   -6.1020    1.6960 H   0  0  0  0  0  0  0  0  0  0  0  0
   -5.6670   -6.3070   -0.0720 H   0  0  0  0  0  0  0  0  0  0  0  0
   -3.2160   -6.4720    1.6970 H   0  0  0  0  0  0  0  0  0  0  0  0
   -3.2460   -6.6760   -0.0700 H   0  0  0  0  0  0  0  0  0  0  0  0
    0.3650   -3.8930    0.4480 H   0  0  0  0  0  0  0  0  0  0  0  0
   -3.4340   -1.9630    0.2790 H   0  0  0  0  0  0  0  0  0  0  0  0
   -5.8290  -11.9350    5.8640 H   0  0  0  0  0  0  0  0  0  0  0  0
   -5.8980  -14.6010    2.5160 H   0  0  0  0  0  0  0  0  0  0  0  0
  1  2  1  0  0  0  0
  1  5  2  0  0  0  0
  2  4  2  0  0  0  0
  2  8  1  0  0  0  0
  3  7  1  0  0  0  0
  3 10  1  0  0  0  0
  3 11  2  0  0  0  0
  4  6  1  0  0  0  0
  5  6  1  0  0  0  0
  5 19  1  0  0  0  0
  7 14  2  0  0  0  0
  7 15  1  0  0  0  0
  8 16  2  0  0  0  0
  8 17  1  0  0  0  0
  9 12  1  0  0  0  0
  9 13  2  0  0  0  0
  9 20  1  0  0  0  0
 12 18  1  0  0  0  0
 12 27  1  0  0  0  0
 14 22  1  0  0  0  0
 14 28  1  0  0  0  0
 15 23  2  0  0  0  0
 15 29  1  0  0  0  0
 16 24  1  0  0  0  0
 16 30  1  0  0  0  0
 17 25  2  0  0  0  0
 17 31  1  0  0  0  0
 18 22  2  0  0  0  0
 18 23  1  0  0  0  0
 19 20  1  0  0  0  0
 19 32  1  0  0  0  0
 19 33  1  0  0  0  0
 20 34  1  0  0  0  0
 20 35  1  0  0  0  0
 21 24  2  0  0  0  0
 21 25  1  0  0  0  0
 21 26  1  0  0  0  0
 22 36  1  0  0  0  0
 23 37  1  0  0  0  0
 24 38  1  0  0  0  0
 25 39  1  0  0  0  0
M  CHG  2   3   1  10  -1
M  END
>  <$CLUSTER>
567

>  <INDEX>
368855

$$$$
Asinex ASN 05343028
 OpenBabel04062209303D

 43 45  0  0  0  0  0  0  0  0999 V2000
    0.5050    2.0520   -0.7350 S   0  0  0  0  0  0  0  0  0  0  0  0
   -0.8110   -4.4620    2.7210 O   0  0  0  0  0  0  0  0  0  0  0  0
   -1.6620   -3.5870    2.0960 C   0  0  0  0  0  0  0  0  0  0  0  0
   -2.9260   -3.8190    2.3890 N   0  0  0  0  0  0  0  0  0  0  0  0
   -1.6840   -5.2410    3.4160 C   0  0  0  0  0  0  0  0  0  0  0  0
   -2.9380   -4.9000    3.2500 N   0  0  0  0  0  0  0  0  0  0  0  0
    0.6050    0.4240   -1.2640 N   0  0  0  0  0  0  0  0  0  0  0  0
   -1.0630   -2.5590    1.2270 C   0  0  0  0  0  0  0  0  0  0  0  0
   -3.4560   -7.9360    4.0100 C   0  0  0  0  0  0  0  0  0  0  0  0
    1.0520    2.8960   -1.7810 O   0  0  0  0  0  0  0  0  0  0  0  0
   -0.7960    2.3370   -0.1630 O   0  0  0  0  0  0  0  0  0  0  0  0
   -1.0870   -6.5450    4.4040 S   0  0  0  0  0  0  0  0  0  0  0  0
   -4.4140   -7.1700    3.4380 N   0  0  0  0  0  0  0  0  0  0  0  0
   -3.2190   -9.0840    3.6500 O   0  0  0  0  0  0  0  0  0  0  0  0
    0.3180   -2.4830    1.0480 C   0  0  0  0  0  0  0  0  0  0  0  0
   -1.9010   -1.6540    0.5760 C   0  0  0  0  0  0  0  0  0  0  0  0
   -2.6260   -7.2170    5.0690 C   0  0  0  0  0  0  0  0  0  0  0  0
    0.0220   -0.5940   -0.4320 C   0  0  0  0  0  0  0  0  0  0  0  0
    1.6930    2.0340    0.5890 C   0  0  0  0  0  0  0  0  0  0  0  0
   -5.3680   -7.4380    2.4430 C   0  0  0  0  0  0  0  0  0  0  0  0
    0.8630   -1.5010    0.2200 C   0  0  0  0  0  0  0  0  0  0  0  0
   -1.3610   -0.6700   -0.2530 C   0  0  0  0  0  0  0  0  0  0  0  0
   -5.4430   -8.6760    1.7990 C   0  0  0  0  0  0  0  0  0  0  0  0
   -6.2710   -6.4290    2.0770 C   0  0  0  0  0  0  0  0  0  0  0  0
   -6.4050   -8.8980    0.8080 C   0  0  0  0  0  0  0  0  0  0  0  0
   -7.2300   -6.6530    1.0880 C   0  0  0  0  0  0  0  0  0  0  0  0
   -7.2980   -7.8890    0.4520 C   0  0  0  0  0  0  0  0  0  0  0  0
    1.0600    0.1870   -2.1340 H   0  0  0  0  0  0  0  0  0  0  0  0
   -4.4500   -6.2260    3.7950 H   0  0  0  0  0  0  0  0  0  0  0  0
    0.9660   -3.1850    1.5510 H   0  0  0  0  0  0  0  0  0  0  0  0
   -2.9700   -1.7150    0.7140 H   0  0  0  0  0  0  0  0  0  0  0  0
   -2.3840   -7.9240    5.8630 H   0  0  0  0  0  0  0  0  0  0  0  0
   -3.2170   -6.3980    5.4790 H   0  0  0  0  0  0  0  0  0  0  0  0
    2.6830    1.8210    0.1860 H   0  0  0  0  0  0  0  0  0  0  0  0
    1.4210    1.2630    1.3110 H   0  0  0  0  0  0  0  0  0  0  0  0
    1.7030    3.0060    1.0820 H   0  0  0  0  0  0  0  0  0  0  0  0
    1.9330   -1.4420    0.0830 H   0  0  0  0  0  0  0  0  0  0  0  0
   -2.0110    0.0310   -0.7550 H   0  0  0  0  0  0  0  0  0  0  0  0
   -4.7560   -9.4640    2.0670 H   0  0  0  0  0  0  0  0  0  0  0  0
   -6.2240   -5.4670    2.5660 H   0  0  0  0  0  0  0  0  0  0  0  0
   -6.4560   -9.8580    0.3150 H   0  0  0  0  0  0  0  0  0  0  0  0
   -7.9190   -5.8670    0.8160 H   0  0  0  0  0  0  0  0  0  0  0  0
   -8.0390   -8.0650   -0.3140 H   0  0  0  0  0  0  0  0  0  0  0  0
  1  7  1  0  0  0  0
  1 10  2  0  0  0  0
  1 11  2  0  0  0  0
  1 19  1  0  0  0  0
  2  3  1  0  0  0  0
  2  5  1  0  0  0  0
  3  4  2  0  0  0  0
  3  8  1  0  0  0  0
  4  6  1  0  0  0  0
  5  6  2  0  0  0  0
  5 12  1  0  0  0  0
  7 18  1  0  0  0  0
  7 28  1  0  0  0  0
  8 15  2  0  0  0  0
  8 16  1  0  0  0  0
  9 13  1  0  0  0  0
  9 14  2  0  0  0  0
  9 17  1  0  0  0  0
 12 17  1  0  0  0  0
 13 20  1  0  0  0  0
 13 29  1  0  0  0  0
 15 21  1  0  0  0  0
 15 30  1  0  0  0  0
 16 22  2  0  0  0  0
 16 31  1  0  0  0  0
 17 32  1  0  0  0  0
 17 33  1  0  0  0  0
 18 21  2  0  0  0  0
 18 22  1  0  0  0  0
 19 34  1  0  0  0  0
 19 35  1  0  0  0  0
 19 36  1  0  0  0  0
 20 23  2  0  0  0  0
 20 24  1  0  0  0  0
 21 37  1  0  0  0  0
 22 38  1  0  0  0  0
 23 25  1  0  0  0  0
 23 39  1  0  0  0  0
 24 26  2  0  0  0  0
 24 40  1  0  0  0  0
 25 27  2  0  0  0  0
 25 41  1  0  0  0  0
 26 27  1  0  0  0  0
 26 42  1  0  0  0  0
 27 43  1  0  0  0  0
M  END
>  <$CLUSTER>
228

>  <INDEX>
146110

$$$$
Asinex ASN 03365236
 OpenBabel04062209303D

 50 52  0  0  0  0  0  0  0  0999 V2000
   -0.9690   -1.3550    2.0070 C   0  0  0  0  0  0  0  0  0  0  0  0
   -2.1780   -1.8230    2.7820 C   0  0  0  0  0  0  0  0  0  0  0  0
   -1.9180   -2.4830    3.9610 N   0  0  0  0  0  0  0  0  0  0  0  0
    0.5170    1.0120    0.1900 C   0  0  0  0  0  0  0  0  0  0  0  0
    0.2370   -1.6090    2.5130 C   0  0  0  0  0  0  0  0  0  0  0  0
   -0.6590   -2.7250    4.4450 C   0  0  0  0  0  0  0  0  0  0  0  0
    0.4160   -2.3120    3.7640 C   0  0  0  0  0  0  0  0  0  0  0  0
   -0.1170   -0.2130   -0.0310 N   0  0  0  0  0  0  0  0  0  0  0  0
   -1.3190   -0.6320    0.7140 C   0  0  0  0  0  0  0  0  0  0  0  0
    0.0470    1.7710    1.2130 N   0  0  0  0  0  0  0  0  0  0  0  0
   -0.4960   -3.4210    5.6840 C   0  0  0  0  0  0  0  0  0  0  0  0
    1.7390   -2.5500    4.2410 C   0  0  0  0  0  0  0  0  0  0  0  0
    1.9030   -3.2290    5.4510 C   0  0  0  0  0  0  0  0  0  0  0  0
    0.7870   -3.6640    6.1690 C   0  0  0  0  0  0  0  0  0  0  0  0
    1.8100    1.6340   -0.6860 S   0  0  0  0  0  0  0  0  0  0  0  0
   -3.3210   -1.6230    2.3800 O   0  0  0  0  0  0  0  0  0  0  0  0
    0.1690    2.9470    1.9230 C   0  0  0  0  0  0  0  0  0  0  0  0
    0.4130    5.3500    3.3820 C   0  0  0  0  0  0  0  0  0  0  0  0
    0.4660    6.4590    4.1160 F   0  0  0  0  0  0  0  0  0  0  0  0
    1.1460    3.8880    1.5920 C   0  0  0  0  0  0  0  0  0  0  0  0
   -0.6870    3.2340    3.0020 C   0  0  0  0  0  0  0  0  0  0  0  0
    1.2670    5.0810    2.3150 C   0  0  0  0  0  0  0  0  0  0  0  0
   -0.5680    4.4240    3.7270 C   0  0  0  0  0  0  0  0  0  0  0  0
    0.3650   -1.1860   -1.0320 C   0  0  0  0  0  0  0  0  0  0  0  0
   -0.1590    0.3010   -2.8860 O   0  0  0  0  0  0  0  0  0  0  0  0
    0.9690   -4.3930    7.4620 C   0  0  0  0  0  0  0  0  0  0  0  0
    3.2780   -3.4890    5.9760 C   0  0  0  0  0  0  0  0  0  0  0  0
   -0.3350   -1.0300   -2.3750 C   0  0  0  0  0  0  0  0  0  0  0  0
   -2.7050   -2.8100    4.5040 H   0  0  0  0  0  0  0  0  0  0  0  0
    1.1110   -1.2790    1.9710 H   0  0  0  0  0  0  0  0  0  0  0  0
   -1.9090    0.2520    0.9550 H   0  0  0  0  0  0  0  0  0  0  0  0
   -1.9070   -1.3010    0.0850 H   0  0  0  0  0  0  0  0  0  0  0  0
   -0.7150    1.2560    1.6310 H   0  0  0  0  0  0  0  0  0  0  0  0
   -1.3600   -3.7550    6.2390 H   0  0  0  0  0  0  0  0  0  0  0  0
    2.5970   -2.2120    3.6780 H   0  0  0  0  0  0  0  0  0  0  0  0
    1.8170    3.6930    0.7680 H   0  0  0  0  0  0  0  0  0  0  0  0
   -1.4510    2.5210    3.2760 H   0  0  0  0  0  0  0  0  0  0  0  0
    2.0280    5.7980    2.0430 H   0  0  0  0  0  0  0  0  0  0  0  0
   -1.2350    4.6240    4.5520 H   0  0  0  0  0  0  0  0  0  0  0  0
    0.1830   -2.1930   -0.6570 H   0  0  0  0  0  0  0  0  0  0  0  0
    1.4350   -1.0390   -1.1760 H   0  0  0  0  0  0  0  0  0  0  0  0
   -0.6150    0.3510   -3.7290 H   0  0  0  0  0  0  0  0  0  0  0  0
   -0.0070   -4.6510    7.8740 H   0  0  0  0  0  0  0  0  0  0  0  0
    1.5040   -3.7560    8.1660 H   0  0  0  0  0  0  0  0  0  0  0  0
    1.5420   -5.3040    7.2880 H   0  0  0  0  0  0  0  0  0  0  0  0
    4.0140   -3.0790    5.2850 H   0  0  0  0  0  0  0  0  0  0  0  0
    3.4320   -4.5630    6.0760 H   0  0  0  0  0  0  0  0  0  0  0  0
    3.3910   -3.0140    6.9510 H   0  0  0  0  0  0  0  0  0  0  0  0
   -1.4000   -1.2270   -2.2490 H   0  0  0  0  0  0  0  0  0  0  0  0
    0.0860   -1.7440   -3.0830 H   0  0  0  0  0  0  0  0  0  0  0  0
  1  2  1  0  0  0  0
  1  5  2  0  0  0  0
  1  9  1  0  0  0  0
  2  3  1  0  0  0  0
  2 16  2  0  0  0  0
  3  6  1  0  0  0  0
  3 29  1  0  0  0  0
  4  8  1  0  0  0  0
  4 10  1  0  0  0  0
  4 15  2  0  0  0  0
  5  7  1  0  0  0  0
  5 30  1  0  0  0  0
  6  7  2  0  0  0  0
  6 11  1  0  0  0  0
  7 12  1  0  0  0  0
  8  9  1  0  0  0  0
  8 24  1  0  0  0  0
  9 31  1  0  0  0  0
  9 32  1  0  0  0  0
 10 17  1  0  0  0  0
 10 33  1  0  0  0  0
 11 14  2  0  0  0  0
 11 34  1  0  0  0  0
 12 13  2  0  0  0  0
 12 35  1  0  0  0  0
 13 14  1  0  0  0  0
 13 27  1  0  0  0  0
 14 26  1  0  0  0  0
 17 20  2  0  0  0  0
 17 21  1  0  0  0  0
 18 19  1  0  0  0  0
 18 22  2  0  0  0  0
 18 23  1  0  0  0  0
 20 22  1  0  0  0  0
 20 36  1  0  0  0  0
 21 23  2  0  0  0  0
 21 37  1  0  0  0  0
 22 38  1  0  0  0  0
 23 39  1  0  0  0  0
 24 28  1  0  0  0  0
 24 40  1  0  0  0  0
 24 41  1  0  0  0  0
 25 28  1  0  0  0  0
 25 42  1  0  0  0  0
 26 43  1  0  0  0  0
 26 44  1  0  0  0  0
 26 45  1  0  0  0  0
 27 46  1  0  0  0  0
 27 47  1  0  0  0  0
 27 48  1  0  0  0  0
 28 49  1  0  0  0  0
 28 50  1  0  0  0  0
M  END
>  <$CLUSTER>
202

>  <INDEX>
131464

$$$$
Life Chemicals F0566-0293
 OpenBabel04062209303D

 49 52  0  0  0  0  0  0  0  0999 V2000
   -0.9940   -1.2820    0.0970 C   0  0  0  0  0  0  0  0  0  0  0  0
   -5.9230   -7.4020    2.0270 S   0  0  0  0  0  0  0  0  0  0  0  0
   -1.7080   -2.2560    0.5630 N   0  0  0  0  0  0  0  0  0  0  0  0
   -0.0150   -0.5890    0.7950 N   0  0  0  0  0  0  0  0  0  0  0  0
   -1.1380   -0.6290   -1.5730 S   0  0  0  0  0  0  0  0  0  0  0  0
    0.1280    0.5670   -1.2450 C   0  0  0  0  0  0  0  0  0  0  0  0
    0.6060    0.4420    0.0580 C   0  0  0  0  0  0  0  0  0  0  0  0
   -2.7100   -2.8920   -0.3020 C   0  0  0  0  0  0  0  0  0  0  0  0
   -4.7910   -8.5890    2.3610 N   0  0  0  0  0  0  0  0  0  0  0  0
   -4.9420   -6.0900    1.3770 C   0  0  0  0  0  0  0  0  0  0  0  0
    0.6160    1.5250   -2.1280 C   0  0  0  0  0  0  0  0  0  0  0  0
   -6.4920   -6.9710    3.2930 O   0  0  0  0  0  0  0  0  0  0  0  0
   -6.7890   -7.9030    0.9750 O   0  0  0  0  0  0  0  0  0  0  0  0
    1.6090    1.3130    0.4930 C   0  0  0  0  0  0  0  0  0  0  0  0
   -3.4300   -3.9670    0.3620 C   0  0  0  0  0  0  0  0  0  0  0  0
   -2.8620   -2.5030   -1.4460 O   0  0  0  0  0  0  0  0  0  0  0  0
   -4.4070   -5.1260    2.2300 C   0  0  0  0  0  0  0  0  0  0  0  0
   -4.7360   -5.9950    0.0020 C   0  0  0  0  0  0  0  0  0  0  0  0
   -3.6610   -4.0650    1.7120 C   0  0  0  0  0  0  0  0  0  0  0  0
   -3.9920   -4.9350   -0.5210 C   0  0  0  0  0  0  0  0  0  0  0  0
    1.6180    2.3880   -1.6870 C   0  0  0  0  0  0  0  0  0  0  0  0
    0.3340   -0.8780    2.1810 C   0  0  0  0  0  0  0  0  0  0  0  0
    2.1120    2.2830   -0.3820 C   0  0  0  0  0  0  0  0  0  0  0  0
    2.0530    3.2880   -2.5710 F   0  0  0  0  0  0  0  0  0  0  0  0
   -4.1270   -9.2610    1.2130 C   0  0  0  0  0  0  0  0  0  0  0  0
   -3.8380   -8.3520    3.4770 C   0  0  0  0  0  0  0  0  0  0  0  0
   -0.4590    0.0070    3.1310 C   0  0  0  0  0  0  0  0  0  0  0  0
   -2.7920   -9.4880    3.2480 C   0  0  0  0  0  0  0  0  0  0  0  0
   -3.2220  -10.2390    2.0050 C   0  0  0  0  0  0  0  0  0  0  0  0
    0.2270    1.5980   -3.1330 H   0  0  0  0  0  0  0  0  0  0  0  0
    1.9940    1.2380    1.4990 H   0  0  0  0  0  0  0  0  0  0  0  0
   -4.5700   -5.2000    3.2950 H   0  0  0  0  0  0  0  0  0  0  0  0
   -5.1520   -6.7410   -0.6590 H   0  0  0  0  0  0  0  0  0  0  0  0
   -3.2620   -3.3150    2.3790 H   0  0  0  0  0  0  0  0  0  0  0  0
   -3.8430   -4.8490   -1.5870 H   0  0  0  0  0  0  0  0  0  0  0  0
    1.3990   -0.6960    2.3270 H   0  0  0  0  0  0  0  0  0  0  0  0
    0.1110   -1.9230    2.3960 H   0  0  0  0  0  0  0  0  0  0  0  0
    2.8880    2.9560   -0.0470 H   0  0  0  0  0  0  0  0  0  0  0  0
   -3.5470   -8.5630    0.6090 H   0  0  0  0  0  0  0  0  0  0  0  0
   -4.8400   -9.7860    0.5770 H   0  0  0  0  0  0  0  0  0  0  0  0
   -4.3280   -8.4520    4.4460 H   0  0  0  0  0  0  0  0  0  0  0  0
   -3.3770   -7.3670    3.4030 H   0  0  0  0  0  0  0  0  0  0  0  0
   -0.2400    1.0540    2.9210 H   0  0  0  0  0  0  0  0  0  0  0  0
   -0.1810   -0.2230    4.1590 H   0  0  0  0  0  0  0  0  0  0  0  0
   -1.5250   -0.1760    2.9940 H   0  0  0  0  0  0  0  0  0  0  0  0
   -2.7760  -10.1610    4.1050 H   0  0  0  0  0  0  0  0  0  0  0  0
   -1.8000   -9.0600    3.1030 H   0  0  0  0  0  0  0  0  0  0  0  0
   -2.3520  -10.5180    1.4100 H   0  0  0  0  0  0  0  0  0  0  0  0
   -3.7790  -11.1360    2.2770 H   0  0  0  0  0  0  0  0  0  0  0  0
  1  3  2  0  0  0  0
  1  4  1  0  0  0  0
  1  5  1  0  0  0  0
  2  9  1  0  0  0  0
  2 10  1  0  0  0  0
  2 12  2  0  0  0  0
  2 13  2  0  0  0  0
  3  8  1  0  0  0  0
  4  7  1  0  0  0  0
  4 22  1  0  0  0  0
  5  6  1  0  0  0  0
  6  7  2  0  0  0  0
  6 11  1  0  0  0  0
  7 14  1  0  0  0  0
  8 15  1  0  0  0  0
  8 16  2  0  0  0  0
  9 25  1  0  0  0  0
  9 26  1  0  0  0  0
 10 17  2  0  0  0  0
 10 18  1  0  0  0  0
 11 21  2  0  0  0  0
 11 30  1  0  0  0  0
 14 23  2  0  0  0  0
 14 31  1  0  0  0  0
 15 19  2  0  0  0  0
 15 20  1  0  0  0  0
 17 19  1  0  0  0  0
 17 32  1  0  0  0  0
 18 20  2  0  0  0  0
 18 33  1  0  0  0  0
 19 34  1  0  0  0  0
 20 35  1  0  0  0  0
 21 23  1  0  0  0  0
 21 24  1  0  0  0  0
 22 27  1  0  0  0  0
 22 36  1  0  0  0  0
 22 37  1  0  0  0  0
 23 38  1  0  0  0  0
 25 29  1  0  0  0  0
 25 39  1  0  0  0  0
 25 40  1  0  0  0  0
 26 28  1  0  0  0  0
 26 41  1  0  0  0  0
 26 42  1  0  0  0  0
 27 43  1  0  0  0  0
 27 44  1  0  0  0  0
 27 45  1  0  0  0  0
 28 29  1  0  0  0  0
 28 46  1  0  0  0  0
 28 47  1  0  0  0  0
 29 48  1  0  0  0  0
 29 49  1  0  0  0  0
M  END
>  <$CLUSTER>
458

>  <INDEX>
274605

$$$$
EMC Microcollections 001A3586
 OpenBabel04062209303D

 52 55  0  0  0  0  0  0  0  0999 V2000
    1.1310    0.8940   -1.4770 N   0  0  0  0  0  0  0  0  0  0  0  0
   -0.1910   -0.2350   -0.0700 C   0  0  0  0  0  0  0  0  0  0  0  0
    0.6960   -0.2060   -2.1610 C   0  0  0  0  0  0  0  0  0  0  0  0
    0.6060    0.8980   -0.2070 C   0  0  0  0  0  0  0  0  0  0  0  0
    0.9810   -0.6650   -3.5140 C   0  0  0  0  0  0  0  0  0  0  0  0
    2.1440   -0.2810   -4.1540 N   0  0  0  0  0  0  0  0  0  0  0  0
   -0.1220   -0.9230   -1.3200 C   0  0  0  0  0  0  0  0  0  0  0  0
    2.1760   -0.8110   -5.3560 C   0  0  0  0  0  0  0  0  0  0  0  0
    0.8370   -1.7880   -5.7920 S   0  0  0  0  0  0  0  0  0  0  0  0
   -0.9280   -0.5960    1.1380 C   0  0  0  0  0  0  0  0  0  0  0  0
    0.1460   -1.4860   -4.2500 C   0  0  0  0  0  0  0  0  0  0  0  0
    3.3120   -0.5810   -6.3020 C   0  0  0  0  0  0  0  0  0  0  0  0
    2.0160    1.9250   -2.0500 C   0  0  0  0  0  0  0  0  0  0  0  0
    5.4600    0.5120   -6.6950 N   0  0  0  0  0  0  0  0  0  0  0  0
    4.3800    0.2340   -5.9230 C   0  0  0  0  0  0  0  0  0  0  0  0
   -0.9050    0.0860    2.1610 O   0  0  0  0  0  0  0  0  0  0  0  0
    3.3920   -1.1410   -7.5830 C   0  0  0  0  0  0  0  0  0  0  0  0
   -1.6580   -1.7620    1.0560 N   0  0  0  0  0  0  0  0  0  0  0  0
    5.4840   -0.0530   -7.9190 C   0  0  0  0  0  0  0  0  0  0  0  0
    3.4870    1.6370   -1.8000 C   0  0  0  0  0  0  0  0  0  0  0  0
    0.9280    1.9950    0.7430 C   0  0  0  0  0  0  0  0  0  0  0  0
    6.1910    1.0930   -1.3220 C   0  0  0  0  0  0  0  0  0  0  0  0
    4.4860   -0.8770   -8.4050 C   0  0  0  0  0  0  0  0  0  0  0  0
    4.2690    1.0380   -2.7910 C   0  0  0  0  0  0  0  0  0  0  0  0
    4.0580    1.9370   -0.5560 C   0  0  0  0  0  0  0  0  0  0  0  0
    5.4100    1.6720   -0.3220 C   0  0  0  0  0  0  0  0  0  0  0  0
    5.6210    0.7730   -2.5550 C   0  0  0  0  0  0  0  0  0  0  0  0
    7.5260    0.7770   -1.2090 O   0  0  0  0  0  0  0  0  0  0  0  0
    6.7130    0.2580   -8.8040 C   0  0  0  0  0  0  0  0  0  0  0  0
    8.1560    1.0770    0.0310 C   0  0  0  0  0  0  0  0  0  0  0  0
   -0.6260   -1.8470   -1.5630 H   0  0  0  0  0  0  0  0  0  0  0  0
   -0.8000   -1.8780   -3.9060 H   0  0  0  0  0  0  0  0  0  0  0  0
    1.7670    2.8870   -1.6020 H   0  0  0  0  0  0  0  0  0  0  0  0
    1.8470    1.9710   -3.1260 H   0  0  0  0  0  0  0  0  0  0  0  0
    4.3440    0.6780   -4.9390 H   0  0  0  0  0  0  0  0  0  0  0  0
    2.5990   -1.7830   -7.9370 H   0  0  0  0  0  0  0  0  0  0  0  0
   -2.1950   -2.0790    1.8510 H   0  0  0  0  0  0  0  0  0  0  0  0
   -1.6560   -2.3000    0.2010 H   0  0  0  0  0  0  0  0  0  0  0  0
    1.5950    2.7090    0.2600 H   0  0  0  0  0  0  0  0  0  0  0  0
    1.4160    1.5800    1.6250 H   0  0  0  0  0  0  0  0  0  0  0  0
    0.0090    2.5000    1.0400 H   0  0  0  0  0  0  0  0  0  0  0  0
    4.5520   -1.3040   -9.3950 H   0  0  0  0  0  0  0  0  0  0  0  0
    3.8280    0.7790   -3.7420 H   0  0  0  0  0  0  0  0  0  0  0  0
    3.4520    2.3740    0.2240 H   0  0  0  0  0  0  0  0  0  0  0  0
    5.8500    1.9160    0.6340 H   0  0  0  0  0  0  0  0  0  0  0  0
    6.2250    0.3200   -3.3270 H   0  0  0  0  0  0  0  0  0  0  0  0
    7.3920    0.9180   -8.2640 H   0  0  0  0  0  0  0  0  0  0  0  0
    6.3860    0.7460   -9.7220 H   0  0  0  0  0  0  0  0  0  0  0  0
    7.2280   -0.6710   -9.0500 H   0  0  0  0  0  0  0  0  0  0  0  0
    9.2040    0.7790   -0.0120 H   0  0  0  0  0  0  0  0  0  0  0  0
    7.6570    0.5340    0.8330 H   0  0  0  0  0  0  0  0  0  0  0  0
    8.0900    2.1480    0.2220 H   0  0  0  0  0  0  0  0  0  0  0  0
  1  3  1  0  0  0  0
  1  4  1  0  0  0  0
  1 13  1  0  0  0  0
  2  4  2  0  0  0  0
  2  7  1  0  0  0  0
  2 10  1  0  0  0  0
  3  5  1  0  0  0  0
  3  7  2  0  0  0  0
  4 21  1  0  0  0  0
  5  6  1  0  0  0  0
  5 11  2  0  0  0  0
  6  8  2  0  0  0  0
  7 31  1  0  0  0  0
  8  9  1  0  0  0  0
  8 12  1  0  0  0  0
  9 11  1  0  0  0  0
 10 16  2  0  0  0  0
 10 18  1  0  0  0  0
 11 32  1  0  0  0  0
 12 15  2  0  0  0  0
 12 17  1  0  0  0  0
 13 20  1  0  0  0  0
 13 33  1  0  0  0  0
 13 34  1  0  0  0  0
 14 15  1  0  0  0  0
 14 19  2  0  0  0  0
 15 35  1  0  0  0  0
 17 23  2  0  0  0  0
 17 36  1  0  0  0  0
 18 37  1  0  0  0  0
 18 38  1  0  0  0  0
 19 23  1  0  0  0  0
 19 29  1  0  0  0  0
 20 24  1  0  0  0  0
 20 25  2  0  0  0  0
 21 39  1  0  0  0  0
 21 40  1  0  0  0  0
 21 41  1  0  0  0  0
 22 26  2  0  0  0  0
 22 27  1  0  0  0  0
 22 28  1  0  0  0  0
 23 42  1  0  0  0  0
 24 27  2  0  0  0  0
 24 43  1  0  0  0  0
 25 26  1  0  0  0  0
 25 44  1  0  0  0  0
 26 45  1  0  0  0  0
 27 46  1  0  0  0  0
 28 30  1  0  0  0  0
 29 47  1  0  0  0  0
 29 48  1  0  0  0  0
 29 49  1  0  0  0  0
 30 50  1  0  0  0  0
 30 51  1  0  0  0  0
 30 52  1  0  0  0  0
M  END
>  <$CLUSTER>
345

>  <INDEX>
215862

$$$$
Chem T&I AMSACS-01505
 OpenBabel04062209303D

 37 39  0  0  0  0  0  0  0  0999 V2000
    1.6950   -0.6790    0.4260 S   0  0  0  0  0  0  0  0  0  0  0  0
    0.4640    0.4420    0.7500 N   0  0  0  0  0  0  0  0  0  0  0  0
   -0.7330    0.4970    0.0200 C   0  0  0  0  0  0  0  0  0  0  0  0
   -1.6410    1.4520    0.2580 N   0  0  0  0  0  0  0  0  0  0  0  0
   -2.6250    1.1820   -0.6140 N   0  0  0  0  0  0  0  0  0  0  0  0
   -1.1560   -0.3780   -1.0090 C   0  0  0  0  0  0  0  0  0  0  0  0
    2.8580   -0.2250    1.6890 C   0  0  0  0  0  0  0  0  0  0  0  0
    2.8070   -0.8580    2.9310 C   0  0  0  0  0  0  0  0  0  0  0  0
   -2.3850    0.0950   -1.3970 C   0  0  0  0  0  0  0  0  0  0  0  0
    3.7420   -0.5190    3.9090 C   0  0  0  0  0  0  0  0  0  0  0  0
    1.2240   -2.0160    0.7310 O   0  0  0  0  0  0  0  0  0  0  0  0
    2.3000   -0.3710   -0.8550 O   0  0  0  0  0  0  0  0  0  0  0  0
    4.7230    0.4360    3.6400 C   0  0  0  0  0  0  0  0  0  0  0  0
    3.8430    0.7230    1.4060 C   0  0  0  0  0  0  0  0  0  0  0  0
   -3.8050    2.0260   -0.6490 C   0  0  0  0  0  0  0  0  0  0  0  0
    4.7740    1.0550    2.3910 C   0  0  0  0  0  0  0  0  0  0  0  0
    3.7630   -1.0640    5.1260 F   0  0  0  0  0  0  0  0  0  0  0  0
   -3.5960    3.2710   -1.4930 C   0  0  0  0  0  0  0  0  0  0  0  0
   -3.1500    5.5440   -3.0610 C   0  0  0  0  0  0  0  0  0  0  0  0
    5.5780    0.7020    4.6290 F   0  0  0  0  0  0  0  0  0  0  0  0
   -2.8900    6.9260   -4.0210 Cl  0  0  0  0  0  0  0  0  0  0  0  0
   -2.8070    5.5510   -1.7100 C   0  0  0  0  0  0  0  0  0  0  0  0
   -3.7080    4.4010   -3.6320 C   0  0  0  0  0  0  0  0  0  0  0  0
   -3.0250    4.4150   -0.9280 C   0  0  0  0  0  0  0  0  0  0  0  0
   -3.9270    3.2650   -2.8510 C   0  0  0  0  0  0  0  0  0  0  0  0
    0.5990    1.1010    1.5040 H   0  0  0  0  0  0  0  0  0  0  0  0
   -0.6270   -1.2330   -1.4030 H   0  0  0  0  0  0  0  0  0  0  0  0
    2.0510   -1.6030    3.1330 H   0  0  0  0  0  0  0  0  0  0  0  0
   -3.0280   -0.3110   -2.1640 H   0  0  0  0  0  0  0  0  0  0  0  0
    3.8840    1.1940    0.4350 H   0  0  0  0  0  0  0  0  0  0  0  0
   -4.0500    2.3290    0.3690 H   0  0  0  0  0  0  0  0  0  0  0  0
   -4.6330    1.4540   -1.0670 H   0  0  0  0  0  0  0  0  0  0  0  0
    5.5360    1.7930    2.1860 H   0  0  0  0  0  0  0  0  0  0  0  0
   -2.3720    6.4350   -1.2680 H   0  0  0  0  0  0  0  0  0  0  0  0
   -3.9710    4.3950   -4.6790 H   0  0  0  0  0  0  0  0  0  0  0  0
   -2.7520    4.4200    0.1170 H   0  0  0  0  0  0  0  0  0  0  0  0
   -4.3530    2.3790   -3.2970 H   0  0  0  0  0  0  0  0  0  0  0  0
  1  2  1  0  0  0  0
  1  7  1  0  0  0  0
  1 11  2  0  0  0  0
  1 12  2  0  0  0  0
  2  3  1  0  0  0  0
  2 26  1  0  0  0  0
  3  4  2  0  0  0  0
  3  6  1  0  0  0  0
  4  5  1  0  0  0  0
  5  9  1  0  0  0  0
  5 15  1  0  0  0  0
  6  9  2  0  0  0  0
  6 27  1  0  0  0  0
  7  8  1  0  0  0  0
  7 14  2  0  0  0  0
  8 10  2  0  0  0  0
  8 28  1  0  0  0  0
  9 29  1  0  0  0  0
 10 13  1  0  0  0  0
 10 17  1  0  0  0  0
 13 16  2  0  0  0  0
 13 20  1  0  0  0  0
 14 16  1  0  0  0  0
 14 30  1  0  0  0  0
 15 18  1  0  0  0  0
 15 31  1  0  0  0  0
 15 32  1  0  0  0  0
 16 33  1  0  0  0  0
 18 24  2  0  0  0  0
 18 25  1  0  0  0  0
 19 21  1  0  0  0  0
 19 22  2  0  0  0  0
 19 23  1  0  0  0  0
 22 24  1  0  0  0  0
 22 34  1  0  0  0  0
 23 25  2  0  0  0  0
 23 35  1  0  0  0  0
 24 36  1  0  0  0  0
 25 37  1  0  0  0  0
M  END
>  <$CLUSTER>
175

>  <INDEX>
513086

$$$$
Chem T&I ARAK0118211
 OpenBabel04062209303D

 50 52  0  0  0  0  0  0  0  0999 V2000
    4.1050   -1.4500   -0.6190 S   0  0  0  0  0  0  0  0  0  0  0  0
    4.6630   -1.4540    0.9590 N   0  0  0  0  0  0  0  0  0  0  0  0
    2.4480   -0.8760   -0.4530 C   0  0  0  0  0  0  0  0  0  0  0  0
    4.0720   -2.8290   -1.0750 O   0  0  0  0  0  0  0  0  0  0  0  0
    4.8720   -0.4600   -1.3540 O   0  0  0  0  0  0  0  0  0  0  0  0
   -1.5220    0.4830   -0.1640 N   0  0  0  0  0  0  0  0  0  0  0  0
    4.8730   -0.1420    1.6270 C   0  0  0  0  0  0  0  0  0  0  0  0
    4.0950   -2.4560    1.8990 C   0  0  0  0  0  0  0  0  0  0  0  0
   -1.9280    0.7850    1.0330 C   0  0  0  0  0  0  0  0  0  0  0  0
    1.4120   -1.7880   -0.2480 C   0  0  0  0  0  0  0  0  0  0  0  0
    2.1670    0.4860   -0.5660 C   0  0  0  0  0  0  0  0  0  0  0  0
   -0.1940    0.0300   -0.2480 C   0  0  0  0  0  0  0  0  0  0  0  0
   -3.3230    1.2810    1.2660 C   0  0  0  0  0  0  0  0  0  0  0  0
   -5.8830    2.2060    1.8000 C   0  0  0  0  0  0  0  0  0  0  0  0
    0.8480    0.9360   -0.4690 C   0  0  0  0  0  0  0  0  0  0  0  0
    0.0940   -1.3360   -0.1500 C   0  0  0  0  0  0  0  0  0  0  0  0
    5.7200   -0.2570    2.8910 C   0  0  0  0  0  0  0  0  0  0  0  0
    4.9270   -2.6100    3.1670 C   0  0  0  0  0  0  0  0  0  0  0  0
   -4.2180    1.4330    0.2250 C   0  0  0  0  0  0  0  0  0  0  0  0
   -3.6810    1.5830    2.5830 C   0  0  0  0  0  0  0  0  0  0  0  0
   -5.5080    1.8990    0.4910 C   0  0  0  0  0  0  0  0  0  0  0  0
   -4.9710    2.0480    2.8450 C   0  0  0  0  0  0  0  0  0  0  0  0
    5.1390   -1.2720    3.8780 C   0  0  1  0  0  0  0  0  0  0  0  0
   -7.1820    2.6560    1.9350 O   0  0  0  0  0  0  0  0  0  0  0  0
   -7.6170    2.9840    3.2500 C   0  0  0  0  0  0  0  0  0  0  0  0
    6.0440   -1.4340    5.0970 C   0  0  0  0  0  0  0  0  0  0  0  0
    3.9010    0.2730    1.8940 H   0  0  0  0  0  0  0  0  0  0  0  0
    5.3750    0.5280    0.9300 H   0  0  0  0  0  0  0  0  0  0  0  0
    4.0470   -3.4210    1.3940 H   0  0  0  0  0  0  0  0  0  0  0  0
    3.0890   -2.1420    2.1780 H   0  0  0  0  0  0  0  0  0  0  0  0
   -1.2530    0.6770    1.8690 H   0  0  0  0  0  0  0  0  0  0  0  0
    1.6290   -2.8430   -0.1650 H   0  0  0  0  0  0  0  0  0  0  0  0
    2.9680    1.1920   -0.7280 H   0  0  0  0  0  0  0  0  0  0  0  0
    0.6320    1.9900   -0.5650 H   0  0  0  0  0  0  0  0  0  0  0  0
   -0.7070   -2.0440    0.0020 H   0  0  0  0  0  0  0  0  0  0  0  0
    5.7650    0.7190    3.3750 H   0  0  0  0  0  0  0  0  0  0  0  0
    6.7260   -0.5720    2.6130 H   0  0  0  0  0  0  0  0  0  0  0  0
    5.8990   -3.0260    2.9020 H   0  0  0  0  0  0  0  0  0  0  0  0
    4.4130   -3.2910    3.8450 H   0  0  0  0  0  0  0  0  0  0  0  0
   -3.9230    1.1940   -0.7860 H   0  0  0  0  0  0  0  0  0  0  0  0
   -2.9700    1.4580    3.3860 H   0  0  0  0  0  0  0  0  0  0  0  0
   -6.2150    2.0220   -0.3160 H   0  0  0  0  0  0  0  0  0  0  0  0
   -5.2640    2.2860    3.8570 H   0  0  0  0  0  0  0  0  0  0  0  0
    4.1770   -0.9060    4.2370 H   0  0  0  0  0  0  0  0  0  0  0  0
   -8.6520    3.3230    3.2160 H   0  0  0  0  0  0  0  0  0  0  0  0
   -6.9880    3.7770    3.6530 H   0  0  0  0  0  0  0  0  0  0  0  0
   -7.5440    2.1030    3.8870 H   0  0  0  0  0  0  0  0  0  0  0  0
    7.0200   -1.8000    4.7790 H   0  0  0  0  0  0  0  0  0  0  0  0
    5.5970   -2.1470    5.7900 H   0  0  0  0  0  0  0  0  0  0  0  0
    6.1610   -0.4710    5.5930 H   0  0  0  0  0  0  0  0  0  0  0  0
  1  2  1  0  0  0  0
  1  3  1  0  0  0  0
  1  4  2  0  0  0  0
  1  5  2  0  0  0  0
  2  7  1  0  0  0  0
  2  8  1  0  0  0  0
  3 10  1  0  0  0  0
  3 11  2  0  0  0  0
  6  9  2  0  0  0  0
  6 12  1  0  0  0  0
  7 17  1  0  0  0  0
  7 27  1  0  0  0  0
  7 28  1  0  0  0  0
  8 18  1  0  0  0  0
  8 29  1  0  0  0  0
  8 30  1  0  0  0  0
  9 13  1  0  0  0  0
  9 31  1  0  0  0  0
 10 16  2  0  0  0  0
 10 32  1  0  0  0  0
 11 15  1  0  0  0  0
 11 33  1  0  0  0  0
 12 15  2  0  0  0  0
 12 16  1  0  0  0  0
 13 19  2  0  0  0  0
 13 20  1  0  0  0  0
 14 21  2  0  0  0  0
 14 22  1  0  0  0  0
 14 24  1  0  0  0  0
 15 34  1  0  0  0  0
 16 35  1  0  0  0  0
 17 23  1  0  0  0  0
 17 36  1  0  0  0  0
 17 37  1  0  0  0  0
 18 23  1  0  0  0  0
 18 38  1  0  0  0  0
 18 39  1  0  0  0  0
 19 21  1  0  0  0  0
 19 40  1  0  0  0  0
 20 22  2  0  0  0  0
 20 41  1  0  0  0  0
 21 42  1  0  0  0  0
 22 43  1  0  0  0  0
 23 26  1  0  0  0  0
 23 44  1  1  0  0  0
 24 25  1  0  0  0  0
 25 45  1  0  0  0  0
 25 46  1  0  0  0  0
 25 47  1  0  0  0  0
 26 48  1  0  0  0  0
 26 49  1  0  0  0  0
 26 50  1  0  0  0  0
M  END
>  <$CLUSTER>
642

>  <INDEX>
536545

$$$$
Chembridge 7634772
 OpenBabel04062209303D

 48 52  0  0  0  0  0  0  0  0999 V2000
   -0.7500    0.7630    1.4090 C   0  0  0  0  0  0  0  0  0  0  0  0
    0.0270    0.4290    0.3020 N   0  0  0  0  0  0  0  0  0  0  0  0
    0.7010    1.6030    0.0030 C   0  0  0  0  0  0  0  0  0  0  0  0
   -0.5320    2.0240    1.7330 N   0  0  0  0  0  0  0  0  0  0  0  0
   -3.0090    0.0170    1.9190 N   0  0  0  0  0  0  0  0  0  0  0  0
    0.3750    2.5460    0.8560 N   0  0  0  0  0  0  0  0  0  0  0  0
   -4.9860   -0.3550    0.9660 N   0  0  0  0  0  0  0  0  0  0  0  0
   -3.7270   -0.7280    1.0190 C   0  0  0  0  0  0  0  0  0  0  0  0
   -1.5930   -0.1610    2.2210 C   0  0  0  0  0  0  0  0  0  0  0  0
   -3.8710    0.9200    2.4960 C   0  0  0  0  0  0  0  0  0  0  0  0
    1.6810    1.8520   -1.4110 S   0  0  0  0  0  0  0  0  0  0  0  0
   -5.0950    0.6690    1.8780 C   0  0  0  0  0  0  0  0  0  0  0  0
    0.1040   -0.8280   -0.3530 C   0  0  0  0  0  0  0  0  0  0  0  0
    3.2280    3.6970   -0.0320 C   0  0  0  0  0  0  0  0  0  0  0  0
    2.2280    3.5570   -1.1770 C   0  0  0  0  0  0  0  0  0  0  0  0
    2.7850    3.9730    1.2580 C   0  0  0  0  0  0  0  0  0  0  0  0
    1.4770    4.1480    1.5020 F   0  0  0  0  0  0  0  0  0  0  0  0
   -3.7030    1.9150    3.4660 C   0  0  0  0  0  0  0  0  0  0  0  0
    4.5950    3.5100   -0.2560 C   0  0  0  0  0  0  0  0  0  0  0  0
   -6.2170    1.4370    2.2330 C   0  0  0  0  0  0  0  0  0  0  0  0
   -1.0630   -1.5530   -0.6210 C   0  0  0  0  0  0  0  0  0  0  0  0
    1.3470   -1.3520   -0.7300 C   0  0  0  0  0  0  0  0  0  0  0  0
    3.6800    4.0860    2.3180 C   0  0  0  0  0  0  0  0  0  0  0  0
   -4.8310    2.6690    3.8060 C   0  0  0  0  0  0  0  0  0  0  0  0
    5.5000    3.6210    0.8020 C   0  0  0  0  0  0  0  0  0  0  0  0
   -6.0670    2.4370    3.2010 C   0  0  0  0  0  0  0  0  0  0  0  0
    5.0440    3.9090    2.0890 C   0  0  0  0  0  0  0  0  0  0  0  0
    1.4170   -2.5910   -1.3710 C   0  0  0  0  0  0  0  0  0  0  0  0
   -0.9840   -2.7900   -1.2650 C   0  0  0  0  0  0  0  0  0  0  0  0
    0.2540   -3.3090   -1.6400 C   0  0  0  0  0  0  0  0  0  0  0  0
   -3.3080   -1.5260    0.4250 H   0  0  0  0  0  0  0  0  0  0  0  0
   -1.4260    0.0420    3.2790 H   0  0  0  0  0  0  0  0  0  0  0  0
   -1.3080   -1.1900    2.0000 H   0  0  0  0  0  0  0  0  0  0  0  0
    1.3580    4.1770   -0.9590 H   0  0  0  0  0  0  0  0  0  0  0  0
    2.6990    3.9030   -2.0970 H   0  0  0  0  0  0  0  0  0  0  0  0
   -2.7450    2.0930    3.9310 H   0  0  0  0  0  0  0  0  0  0  0  0
    4.9520    3.2790   -1.2490 H   0  0  0  0  0  0  0  0  0  0  0  0
   -7.1760    1.2590    1.7680 H   0  0  0  0  0  0  0  0  0  0  0  0
   -2.0240   -1.1560   -0.3300 H   0  0  0  0  0  0  0  0  0  0  0  0
    2.2510   -0.7980   -0.5250 H   0  0  0  0  0  0  0  0  0  0  0  0
    3.3200    4.3090    3.3120 H   0  0  0  0  0  0  0  0  0  0  0  0
   -4.7440    3.4460    4.5510 H   0  0  0  0  0  0  0  0  0  0  0  0
    6.5560    3.4830    0.6230 H   0  0  0  0  0  0  0  0  0  0  0  0
   -6.9190    3.0370    3.4830 H   0  0  0  0  0  0  0  0  0  0  0  0
    5.7460    3.9950    2.9060 H   0  0  0  0  0  0  0  0  0  0  0  0
    2.3770   -2.9940   -1.6590 H   0  0  0  0  0  0  0  0  0  0  0  0
   -1.8860   -3.3470   -1.4730 H   0  0  0  0  0  0  0  0  0  0  0  0
    0.3110   -4.2660   -2.1380 H   0  0  0  0  0  0  0  0  0  0  0  0
  1  2  1  0  0  0  0
  1  4  2  0  0  0  0
  1  9  1  0  0  0  0
  2  3  1  0  0  0  0
  2 13  1  0  0  0  0
  3  6  2  0  0  0  0
  3 11  1  0  0  0  0
  4  6  1  0  0  0  0
  5  8  1  0  0  0  0
  5  9  1  0  0  0  0
  5 10  1  0  0  0  0
  7  8  2  0  0  0  0
  7 12  1  0  0  0  0
  8 31  1  0  0  0  0
  9 32  1  0  0  0  0
  9 33  1  0  0  0  0
 10 12  2  0  0  0  0
 10 18  1  0  0  0  0
 11 15  1  0  0  0  0
 12 20  1  0  0  0  0
 13 21  1  0  0  0  0
 13 22  2  0  0  0  0
 14 15  1  0  0  0  0
 14 16  2  0  0  0  0
 14 19  1  0  0  0  0
 15 34  1  0  0  0  0
 15 35  1  0  0  0  0
 16 17  1  0  0  0  0
 16 23  1  0  0  0  0
 18 24  2  0  0  0  0
 18 36  1  0  0  0  0
 19 25  2  0  0  0  0
 19 37  1  0  0  0  0
 20 26  2  0  0  0  0
 20 38  1  0  0  0  0
 21 29  2  0  0  0  0
 21 39  1  0  0  0  0
 22 28  1  0  0  0  0
 22 40  1  0  0  0  0
 23 27  2  0  0  0  0
 23 41  1  0  0  0  0
 24 26  1  0  0  0  0
 24 42  1  0  0  0  0
 25 27  1  0  0  0  0
 25 43  1  0  0  0  0
 26 44  1  0  0  0  0
 27 45  1  0  0  0  0
 28 30  2  0  0  0  0
 28 46  1  0  0  0  0
 29 30  1  0  0  0  0
 29 47  1  0  0  0  0
 30 48  1  0  0  0  0
M  END
>  <$CLUSTER>
126

>  <INDEX>
81402

$$$$
Chem T&I IVK/0000805
 OpenBabel04062209303D

 52 54  0  0  0  0  0  0  0  0999 V2000
   -1.7270   -0.1590    0.3230 S   0  0  0  0  0  0  0  0  0  0  0  0
   -2.1450    1.4000    0.7670 N   0  0  0  0  0  0  0  0  0  0  0  0
    0.0040   -0.0300   -0.0060 C   0  0  0  0  0  0  0  0  0  0  0  0
   -2.2460    4.2800    1.4510 N   0  3  0  0  0  0  0  0  0  0  0  0
    0.4420    0.2930   -1.2940 C   0  0  0  0  0  0  0  0  0  0  0  0
   -2.4130   -0.4580   -0.9230 O   0  0  0  0  0  0  0  0  0  0  0  0
   -1.9210   -1.0130    1.4810 O   0  0  0  0  0  0  0  0  0  0  0  0
   -1.6360    1.9140    2.0670 C   0  0  0  0  0  0  0  0  0  0  0  0
   -2.1190    2.4550   -0.2810 C   0  0  0  0  0  0  0  0  0  0  0  0
    1.8110    0.3660   -1.5580 C   0  0  0  0  0  0  0  0  0  0  0  0
    0.9250   -0.2930    1.0120 C   0  0  0  0  0  0  0  0  0  0  0  0
    2.7330    0.1110   -0.5420 C   0  0  0  0  0  0  0  0  0  0  0  0
    2.2920   -0.2180    0.7410 C   0  0  0  0  0  0  0  0  0  0  0  0
   -2.8160    3.7670    0.1450 C   0  0  0  0  0  0  0  0  0  0  0  0
   -2.3260    3.2190    2.5290 C   0  0  0  0  0  0  0  0  0  0  0  0
   -2.8790    5.5700    1.8800 C   0  0  0  0  0  0  0  0  0  0  0  0
   -2.4760    6.7320    0.9850 C   0  0  0  0  0  0  0  0  0  0  0  0
   -1.6920    8.8170   -0.7040 C   0  0  0  0  0  0  0  0  0  0  0  0
   -1.3270    7.4730    1.2700 C   0  0  0  0  0  0  0  0  0  0  0  0
   -3.2170    7.0220   -0.1660 C   0  0  0  0  0  0  0  0  0  0  0  0
   -0.9410    8.5190    0.4310 C   0  0  0  0  0  0  0  0  0  0  0  0
   -2.8280    8.0680   -1.0030 C   0  0  0  0  0  0  0  0  0  0  0  0
    2.2910    0.7160   -2.9280 C   0  0  0  0  0  0  0  0  0  0  0  0
    4.1980    0.1920   -0.8310 C   0  0  0  0  0  0  0  0  0  0  0  0
   -1.2820    9.9390   -1.6010 C   0  0  0  0  0  0  0  0  0  0  0  0
   -1.2690    4.4850    1.2960 H   0  0  0  0  0  0  0  0  0  0  0  0
   -0.2740    0.4850   -2.0790 H   0  0  0  0  0  0  0  0  0  0  0  0
   -0.5680    2.1060    1.9670 H   0  0  0  0  0  0  0  0  0  0  0  0
   -1.7990    1.1500    2.8270 H   0  0  0  0  0  0  0  0  0  0  0  0
   -2.6210    2.0710   -1.1690 H   0  0  0  0  0  0  0  0  0  0  0  0
   -1.0790    2.6790   -0.5190 H   0  0  0  0  0  0  0  0  0  0  0  0
    0.5810   -0.5530    2.0020 H   0  0  0  0  0  0  0  0  0  0  0  0
    3.0090   -0.4150    1.5240 H   0  0  0  0  0  0  0  0  0  0  0  0
   -2.6660    4.5190   -0.6300 H   0  0  0  0  0  0  0  0  0  0  0  0
   -3.8830    3.5810    0.2690 H   0  0  0  0  0  0  0  0  0  0  0  0
   -3.3730    3.0110    2.7490 H   0  0  0  0  0  0  0  0  0  0  0  0
   -1.8320    3.5860    3.4290 H   0  0  0  0  0  0  0  0  0  0  0  0
   -2.5700    5.7900    2.9020 H   0  0  0  0  0  0  0  0  0  0  0  0
   -3.9630    5.4580    1.8440 H   0  0  0  0  0  0  0  0  0  0  0  0
   -0.7360    7.2360    2.1420 H   0  0  0  0  0  0  0  0  0  0  0  0
   -4.0910    6.4350   -0.4070 H   0  0  0  0  0  0  0  0  0  0  0  0
   -0.0590    9.0980    0.6620 H   0  0  0  0  0  0  0  0  0  0  0  0
   -3.4080    8.2980   -1.8840 H   0  0  0  0  0  0  0  0  0  0  0  0
    1.4350    0.8790   -3.5820 H   0  0  0  0  0  0  0  0  0  0  0  0
    2.8970   -0.1000   -3.3200 H   0  0  0  0  0  0  0  0  0  0  0  0
    2.8910    1.6250   -2.8820 H   0  0  0  0  0  0  0  0  0  0  0  0
    4.3480    0.4590   -1.8770 H   0  0  0  0  0  0  0  0  0  0  0  0
    4.6610   -0.7750   -0.6330 H   0  0  0  0  0  0  0  0  0  0  0  0
    4.6530    0.9500   -0.1940 H   0  0  0  0  0  0  0  0  0  0  0  0
   -0.3780   10.4050   -1.2100 H   0  0  0  0  0  0  0  0  0  0  0  0
   -2.0820   10.6780   -1.6470 H   0  0  0  0  0  0  0  0  0  0  0  0
   -1.0880    9.5520   -2.6010 H   0  0  0  0  0  0  0  0  0  0  0  0
  1  2  1  0  0  0  0
  1  3  1  0  0  0  0
  1  6  2  0  0  0  0
  1  7  2  0  0  0  0
  2  8  1  0  0  0  0
  2  9  1  0  0  0  0
  3  5  2  0  0  0  0
  3 11  1  0  0  0  0
  4 14  1  0  0  0  0
  4 15  1  0  0  0  0
  4 16  1  0  0  0  0
  4 26  1  0  0  0  0
  5 10  1  0  0  0  0
  5 27  1  0  0  0  0
  8 15  1  0  0  0  0
  8 28  1  0  0  0  0
  8 29  1  0  0  0  0
  9 14  1  0  0  0  0
  9 30  1  0  0  0  0
  9 31  1  0  0  0  0
 10 12  2  0  0  0  0
 10 23  1  0  0  0  0
 11 13  2  0  0  0  0
 11 32  1  0  0  0  0
 12 13  1  0  0  0  0
 12 24  1  0  0  0  0
 13 33  1  0  0  0  0
 14 34  1  0  0  0  0
 14 35  1  0  0  0  0
 15 36  1  0  0  0  0
 15 37  1  0  0  0  0
 16 17  1  0  0  0  0
 16 38  1  0  0  0  0
 16 39  1  0  0  0  0
 17 19  2  0  0  0  0
 17 20  1  0  0  0  0
 18 21  2  0  0  0  0
 18 22  1  0  0  0  0
 18 25  1  0  0  0  0
 19 21  1  0  0  0  0
 19 40  1  0  0  0  0
 20 22  2  0  0  0  0
 20 41  1  0  0  0  0
 21 42  1  0  0  0  0
 22 43  1  0  0  0  0
 23 44  1  0  0  0  0
 23 45  1  0  0  0  0
 23 46  1  0  0  0  0
 24 47  1  0  0  0  0
 24 48  1  0  0  0  0
 24 49  1  0  0  0  0
 25 50  1  0  0  0  0
 25 51  1  0  0  0  0
 25 52  1  0  0  0  0
M  CHG  1   4   1
M  END
>  <$CLUSTER>
727

>  <INDEX>
553334

$$$$
InterBioScreen STOCK5S-68320
 OpenBabel04062209303D

 48 50  0  0  0  0  0  0  0  0999 V2000
    0.6680    0.7030    0.9010 C   0  0  0  0  0  0  0  0  0  0  0  0
   -0.1530    0.6660   -0.2230 N   0  0  0  0  0  0  0  0  0  0  0  0
   -0.3680   -0.5860   -0.4950 C   0  0  0  0  0  0  0  0  0  0  0  0
    1.0860    1.8600    1.4530 C   0  0  0  0  0  0  0  0  0  0  0  0
   -1.1320   -1.0780   -1.5330 N   0  0  0  0  0  0  0  0  0  0  0  0
    0.9620   -0.6720    1.3280 C   0  0  0  0  0  0  0  0  0  0  0  0
    0.2890   -1.5000    0.4220 C   0  0  0  0  0  0  0  0  0  0  0  0
   -1.8090   -0.3000   -2.4730 C   0  0  0  0  0  0  0  0  0  0  0  0
    0.6890    3.2020    0.8850 C   0  0  0  0  0  0  0  0  0  0  0  0
    1.9720    1.9600    2.6640 C   0  0  0  0  0  0  0  0  0  0  0  0
    2.6270    1.9240    3.5600 N   0  0  0  0  0  0  0  0  0  0  0  0
   -2.5500   -1.1490   -3.4730 C   0  0  0  0  0  0  0  0  0  0  0  0
   -1.8280    0.9260   -2.5240 O   0  0  0  0  0  0  0  0  0  0  0  0
   -0.0730    3.1960   -0.1580 O   0  0  0  0  0  0  0  0  0  0  0  0
    1.1060    4.3230    1.4380 N   0  0  0  0  0  0  0  0  0  0  0  0
   -3.0280   -2.4090   -3.2220 C   0  0  0  0  0  0  0  0  0  0  0  0
   -2.8110   -0.5310   -4.7300 C   0  0  0  0  0  0  0  0  0  0  0  0
   -3.9740   -2.5240   -5.4460 C   0  0  0  0  0  0  0  0  0  0  0  0
   -3.5140   -1.2360   -5.7080 C   0  0  0  0  0  0  0  0  0  0  0  0
   -3.7330   -3.1090   -4.2030 C   0  0  0  0  0  0  0  0  0  0  0  0
   -4.6340   -3.1290   -6.4350 F   0  0  0  0  0  0  0  0  0  0  0  0
    1.6970   -1.2490    2.3450 C   0  0  0  0  0  0  0  0  0  0  0  0
    0.3150   -2.8770    0.4820 C   0  0  0  0  0  0  0  0  0  0  0  0
    0.8370    5.6560    1.0470 C   0  0  0  0  0  0  0  0  0  0  0  0
   -0.4710    6.1510    1.6340 C   0  0  0  0  0  0  0  0  0  0  0  0
   -0.7900    7.5850    1.2170 C   0  0  0  0  0  0  0  0  0  0  0  0
    1.7430   -2.6470    2.4330 C   0  0  0  0  0  0  0  0  0  0  0  0
    1.0580   -3.4540    1.5100 C   0  0  0  0  0  0  0  0  0  0  0  0
   -2.0980    8.0700    1.8080 C   0  0  0  0  0  0  0  0  0  0  0  0
   -1.2070   -2.0810   -1.6190 H   0  0  0  0  0  0  0  0  0  0  0  0
    1.6970    4.2160    2.2500 H   0  0  0  0  0  0  0  0  0  0  0  0
   -2.8580   -2.8640   -2.2570 H   0  0  0  0  0  0  0  0  0  0  0  0
   -2.4680    0.4740   -4.9240 H   0  0  0  0  0  0  0  0  0  0  0  0
   -3.7020   -0.7820   -6.6700 H   0  0  0  0  0  0  0  0  0  0  0  0
   -4.0930   -4.1070   -3.9990 H   0  0  0  0  0  0  0  0  0  0  0  0
    2.2260   -0.6350    3.0590 H   0  0  0  0  0  0  0  0  0  0  0  0
   -0.2170   -3.4820   -0.2370 H   0  0  0  0  0  0  0  0  0  0  0  0
    1.6470    6.2980    1.3940 H   0  0  0  0  0  0  0  0  0  0  0  0
    0.7780    5.7020   -0.0400 H   0  0  0  0  0  0  0  0  0  0  0  0
   -1.2760    5.5000    1.2930 H   0  0  0  0  0  0  0  0  0  0  0  0
   -0.4050    6.1090    2.7210 H   0  0  0  0  0  0  0  0  0  0  0  0
    0.0140    8.2380    1.5580 H   0  0  0  0  0  0  0  0  0  0  0  0
   -0.8570    7.6290    0.1300 H   0  0  0  0  0  0  0  0  0  0  0  0
    2.3140   -3.1110    3.2230 H   0  0  0  0  0  0  0  0  0  0  0  0
    1.1070   -4.5290    1.5980 H   0  0  0  0  0  0  0  0  0  0  0  0
   -2.0420    8.0300    2.8960 H   0  0  0  0  0  0  0  0  0  0  0  0
   -2.9110    7.4320    1.4630 H   0  0  0  0  0  0  0  0  0  0  0  0
   -2.2820    9.0960    1.4910 H   0  0  0  0  0  0  0  0  0  0  0  0
  1  2  1  0  0  0  0
  1  4  2  0  0  0  0
  1  6  1  0  0  0  0
  2  3  2  0  0  0  0
  3  5  1  0  0  0  0
  3  7  1  0  0  0  0
  4  9  1  0  0  0  0
  4 10  1  0  0  0  0
  5  8  1  0  0  0  0
  5 30  1  0  0  0  0
  6  7  1  0  0  0  0
  6 22  2  0  0  0  0
  7 23  2  0  0  0  0
  8 12  1  0  0  0  0
  8 13  2  0  0  0  0
  9 14  2  0  0  0  0
  9 15  1  0  0  0  0
 10 11  3  0  0  0  0
 12 16  1  0  0  0  0
 12 17  2  0  0  0  0
 15 24  1  0  0  0  0
 15 31  1  0  0  0  0
 16 20  2  0  0  0  0
 16 32  1  0  0  0  0
 17 19  1  0  0  0  0
 17 33  1  0  0  0  0
 18 19  2  0  0  0  0
 18 20  1  0  0  0  0
 18 21  1  0  0  0  0
 19 34  1  0  0  0  0
 20 35  1  0  0  0  0
 22 27  1  0  0  0  0
 22 36  1  0  0  0  0
 23 28  1  0  0  0  0
 23 37  1  0  0  0  0
 24 25  1  0  0  0  0
 24 38  1  0  0  0  0
 24 39  1  0  0  0  0
 25 26  1  0  0  0  0
 25 40  1  0  0  0  0
 25 41  1  0  0  0  0
 26 29  1  0  0  0  0
 26 42  1  0  0  0  0
 26 43  1  0  0  0  0
 27 28  2  0  0  0  0
 27 44  1  0  0  0  0
 28 45  1  0  0  0  0
 29 46  1  0  0  0  0
 29 47  1  0  0  0  0
 29 48  1  0  0  0  0
M  END
>  <$CLUSTER>
585

>  <INDEX>
384775

$$$$
InterBioScreen STOCK3S-83770
 OpenBabel04062209303D

 50 53  0  0  0  0  0  0  0  0999 V2000
    0.7470    0.7730   -1.6080 N   0  0  0  0  0  0  0  0  0  0  0  0
   -0.3040    1.1890   -2.3730 N   0  0  0  0  0  0  0  0  0  0  0  0
   -1.6300    1.0680   -2.0510 C   0  0  0  0  0  0  0  0  0  0  0  0
    0.4900    0.2120   -0.4630 C   0  0  0  0  0  0  0  0  0  0  0  0
   -1.9250    0.4580   -0.7530 C   0  0  0  0  0  0  0  0  0  0  0  0
   -0.8770    0.0360    0.0570 C   0  0  0  0  0  0  0  0  0  0  0  0
    0.7210    1.3530   -6.0650 C   0  0  0  0  0  0  0  0  0  0  0  0
    1.6440   -0.2560    0.3230 C   0  0  0  0  0  0  0  0  0  0  0  0
    0.1090    1.7920   -3.6780 C   0  0  0  0  0  0  0  0  0  0  0  0
    0.2950    0.7390   -4.7590 C   0  0  0  0  0  0  0  0  0  0  0  0
   -2.5370    1.4480   -2.7880 O   0  0  0  0  0  0  0  0  0  0  0  0
    0.8950    0.4000   -7.0590 N   0  0  0  0  0  0  0  0  0  0  0  0
    0.9010    2.5500   -6.2550 O   0  0  0  0  0  0  0  0  0  0  0  0
    1.8960   -1.6240    0.4420 C   0  0  0  0  0  0  0  0  0  0  0  0
    2.4860    0.6850    0.9160 C   0  0  0  0  0  0  0  0  0  0  0  0
    1.2820    0.5370   -8.4060 C   0  0  0  0  0  0  0  0  0  0  0  0
    2.9950   -2.0530    1.1870 C   0  0  0  0  0  0  0  0  0  0  0  0
    3.5830    0.2480    1.6600 C   0  0  0  0  0  0  0  0  0  0  0  0
    3.8350   -1.1190    1.7970 C   0  0  0  0  0  0  0  0  0  0  0  0
   -3.2510    0.3200   -0.3280 C   0  0  0  0  0  0  0  0  0  0  0  0
   -1.1530   -0.5060    1.3160 C   0  0  0  0  0  0  0  0  0  0  0  0
    5.0070   -1.5860    2.5980 C   0  0  0  0  0  0  0  0  0  0  0  0
    1.3760   -0.6220   -9.1910 C   0  0  0  0  0  0  0  0  0  0  0  0
    1.5760    1.7730   -8.9920 C   0  0  0  0  0  0  0  0  0  0  0  0
   -2.4750   -0.6440    1.7430 C   0  0  0  0  0  0  0  0  0  0  0  0
   -3.5240   -0.2350    0.9210 C   0  0  0  0  0  0  0  0  0  0  0  0
    1.9550    1.8450  -10.3360 C   0  0  0  0  0  0  0  0  0  0  0  0
    1.7550   -0.5470  -10.5340 C   0  0  0  0  0  0  0  0  0  0  0  0
    2.0460    0.6880  -11.1070 C   0  0  0  0  0  0  0  0  0  0  0  0
    1.0510    2.3230   -3.5380 H   0  0  0  0  0  0  0  0  0  0  0  0
   -0.6600    2.4950   -4.0000 H   0  0  0  0  0  0  0  0  0  0  0  0
    1.0580    0.0310   -4.4350 H   0  0  0  0  0  0  0  0  0  0  0  0
   -0.6480    0.2130   -4.9070 H   0  0  0  0  0  0  0  0  0  0  0  0
    0.7140   -0.5500   -6.7680 H   0  0  0  0  0  0  0  0  0  0  0  0
    1.2470   -2.3420   -0.0370 H   0  0  0  0  0  0  0  0  0  0  0  0
    2.2910    1.7410    0.8010 H   0  0  0  0  0  0  0  0  0  0  0  0
    3.1960   -3.1090    1.2920 H   0  0  0  0  0  0  0  0  0  0  0  0
    4.2370    0.9670    2.1300 H   0  0  0  0  0  0  0  0  0  0  0  0
   -4.0610    0.6430   -0.9660 H   0  0  0  0  0  0  0  0  0  0  0  0
   -0.3430   -0.8180    1.9590 H   0  0  0  0  0  0  0  0  0  0  0  0
    5.0410   -2.6750    2.5910 H   0  0  0  0  0  0  0  0  0  0  0  0
    4.9100   -1.2320    3.6240 H   0  0  0  0  0  0  0  0  0  0  0  0
    5.9250   -1.1910    2.1630 H   0  0  0  0  0  0  0  0  0  0  0  0
    1.1530   -1.5830   -8.7520 H   0  0  0  0  0  0  0  0  0  0  0  0
    1.5100    2.6760   -8.4030 H   0  0  0  0  0  0  0  0  0  0  0  0
   -2.6860   -1.0690    2.7130 H   0  0  0  0  0  0  0  0  0  0  0  0
   -4.5460   -0.3480    1.2510 H   0  0  0  0  0  0  0  0  0  0  0  0
    2.1790    2.8040  -10.7790 H   0  0  0  0  0  0  0  0  0  0  0  0
    1.8220   -1.4470  -11.1270 H   0  0  0  0  0  0  0  0  0  0  0  0
    2.3410    0.7490  -12.1440 H   0  0  0  0  0  0  0  0  0  0  0  0
  1  2  1  0  0  0  0
  1  4  2  0  0  0  0
  2  3  1  0  0  0  0
  2  9  1  0  0  0  0
  3  5  1  0  0  0  0
  3 11  2  0  0  0  0
  4  6  1  0  0  0  0
  4  8  1  0  0  0  0
  5  6  2  0  0  0  0
  5 20  1  0  0  0  0
  6 21  1  0  0  0  0
  7 10  1  0  0  0  0
  7 12  1  0  0  0  0
  7 13  2  0  0  0  0
  8 14  2  0  0  0  0
  8 15  1  0  0  0  0
  9 10  1  0  0  0  0
  9 30  1  0  0  0  0
  9 31  1  0  0  0  0
 10 32  1  0  0  0  0
 10 33  1  0  0  0  0
 12 16  1  0  0  0  0
 12 34  1  0  0  0  0
 14 17  1  0  0  0  0
 14 35  1  0  0  0  0
 15 18  2  0  0  0  0
 15 36  1  0  0  0  0
 16 23  1  0  0  0  0
 16 24  2  0  0  0  0
 17 19  2  0  0  0  0
 17 37  1  0  0  0  0
 18 19  1  0  0  0  0
 18 38  1  0  0  0  0
 19 22  1  0  0  0  0
 20 26  2  0  0  0  0
 20 39  1  0  0  0  0
 21 25  2  0  0  0  0
 21 40  1  0  0  0  0
 22 41  1  0  0  0  0
 22 42  1  0  0  0  0
 22 43  1  0  0  0  0
 23 28  2  0  0  0  0
 23 44  1  0  0  0  0
 24 27  1  0  0  0  0
 24 45  1  0  0  0  0
 25 26  1  0  0  0  0
 25 46  1  0  0  0  0
 26 47  1  0  0  0  0
 27 29  2  0  0  0  0
 27 48  1  0  0  0  0
 28 29  1  0  0  0  0
 28 49  1  0  0  0  0
 29 50  1  0  0  0  0
M  END
>  <$CLUSTER>
531

>  <INDEX>
345888

$$$$
Life Chemicals F0529-0304
 OpenBabel04062209303D

 39 41  0  0  0  0  0  0  0  0999 V2000
    1.2360   -2.0770   -1.2030 C   0  0  0  0  0  0  0  0  0  0  0  0
    1.4300   -0.4350   -0.7590 S   0  0  0  0  0  0  0  0  0  0  0  0
   -0.2220   -0.4340   -0.3220 C   0  0  0  0  0  0  0  0  0  0  0  0
    0.0230   -2.5510   -1.0250 N   0  0  0  0  0  0  0  0  0  0  0  0
    2.3660   -2.8550   -1.7550 C   0  0  0  0  0  0  0  0  0  0  0  0
   -0.8270   -1.5900   -0.5100 N   0  0  0  0  0  0  0  0  0  0  0  0
   -0.8590    0.6840    0.1840 N   0  0  0  0  0  0  0  0  0  0  0  0
   -0.2920    1.9310    0.4100 C   0  0  0  0  0  0  0  0  0  0  0  0
    2.2150   -3.6180   -2.9330 C   0  0  0  0  0  0  0  0  0  0  0  0
   -1.3120    2.8930    0.9700 C   0  0  0  0  0  0  0  0  0  0  0  0
   -0.7640    4.2860    1.2470 C   0  0  0  0  0  0  0  0  0  0  0  0
    3.6060   -2.8630   -1.0910 C   0  0  0  0  0  0  0  0  0  0  0  0
   -0.1110    4.6540    2.7760 S   0  0  0  0  0  0  0  0  0  0  0  0
    3.3000   -4.3570   -3.4230 C   0  0  0  0  0  0  0  0  0  0  0  0
    0.2910    6.2390    2.2730 C   0  0  0  0  0  0  0  0  0  0  0  0
    0.8640    2.2920    0.2130 O   0  0  0  0  0  0  0  0  0  0  0  0
   -0.6630    5.3260    0.3630 C   0  0  0  0  0  0  0  0  0  0  0  0
   -0.0570    6.4680    0.9610 C   0  0  0  0  0  0  0  0  0  0  0  0
    4.5250   -4.3470   -2.7530 C   0  0  0  0  0  0  0  0  0  0  0  0
    4.6790   -3.6030   -1.5890 C   0  0  0  0  0  0  0  0  0  0  0  0
    0.9840   -3.5650   -3.5420 O   0  0  0  0  0  0  0  0  0  0  0  0
    5.5010   -5.1180   -3.3440 O   0  0  0  0  0  0  0  0  0  0  0  0
    0.7950   -4.3460   -4.7160 C   0  0  0  0  0  0  0  0  0  0  0  0
    6.7710   -5.1460   -2.7020 C   0  0  0  0  0  0  0  0  0  0  0  0
   -1.8380    0.5830    0.4130 H   0  0  0  0  0  0  0  0  0  0  0  0
   -1.6930    2.4820    1.9050 H   0  0  0  0  0  0  0  0  0  0  0  0
   -2.1280    2.9820    0.2530 H   0  0  0  0  0  0  0  0  0  0  0  0
    3.7290   -2.2890   -0.1840 H   0  0  0  0  0  0  0  0  0  0  0  0
    3.1880   -4.9390   -4.3260 H   0  0  0  0  0  0  0  0  0  0  0  0
    0.7620    6.9730    2.9100 H   0  0  0  0  0  0  0  0  0  0  0  0
   -1.0010    5.2860   -0.6620 H   0  0  0  0  0  0  0  0  0  0  0  0
    0.1100    7.4030    0.4460 H   0  0  0  0  0  0  0  0  0  0  0  0
    5.6270   -3.5980   -1.0710 H   0  0  0  0  0  0  0  0  0  0  0  0
   -0.2210   -4.2060   -5.0860 H   0  0  0  0  0  0  0  0  0  0  0  0
    0.9540   -5.3990   -4.4820 H   0  0  0  0  0  0  0  0  0  0  0  0
    1.5070   -4.0320   -5.4800 H   0  0  0  0  0  0  0  0  0  0  0  0
    7.4490   -5.7870   -3.2650 H   0  0  0  0  0  0  0  0  0  0  0  0
    6.6580   -5.5360   -1.6910 H   0  0  0  0  0  0  0  0  0  0  0  0
    7.1780   -4.1360   -2.6580 H   0  0  0  0  0  0  0  0  0  0  0  0
  1  2  1  0  0  0  0
  1  4  2  0  0  0  0
  1  5  1  0  0  0  0
  2  3  1  0  0  0  0
  3  6  2  0  0  0  0
  3  7  1  0  0  0  0
  4  6  1  0  0  0  0
  5  9  2  0  0  0  0
  5 12  1  0  0  0  0
  7  8  1  0  0  0  0
  7 25  1  0  0  0  0
  8 10  1  0  0  0  0
  8 16  2  0  0  0  0
  9 14  1  0  0  0  0
  9 21  1  0  0  0  0
 10 11  1  0  0  0  0
 10 26  1  0  0  0  0
 10 27  1  0  0  0  0
 11 13  1  0  0  0  0
 11 17  2  0  0  0  0
 12 20  2  0  0  0  0
 12 28  1  0  0  0  0
 13 15  1  0  0  0  0
 14 19  2  0  0  0  0
 14 29  1  0  0  0  0
 15 18  2  0  0  0  0
 15 30  1  0  0  0  0
 17 18  1  0  0  0  0
 17 31  1  0  0  0  0
 18 32  1  0  0  0  0
 19 20  1  0  0  0  0
 19 22  1  0  0  0  0
 20 33  1  0  0  0  0
 21 23  1  0  0  0  0
 22 24  1  0  0  0  0
 23 34  1  0  0  0  0
 23 35  1  0  0  0  0
 23 36  1  0  0  0  0
 24 37  1  0  0  0  0
 24 38  1  0  0  0  0
 24 39  1  0  0  0  0
M  END
>  <$CLUSTER>
409

>  <INDEX>
271975

$$$$
Chem T&I AMSACS-12205
 OpenBabel04062209303D

 42 44  0  0  0  0  0  0  0  0999 V2000
    0.7420    1.3620   -1.0900 S   0  0  0  0  0  0  0  0  0  0  0  0
   -0.6910   -0.4670    0.3390 C   0  0  0  0  0  0  0  0  0  0  0  0
    0.3990   -1.2830    0.5320 N   0  0  0  0  0  0  0  0  0  0  0  0
   -0.6740    0.7070   -0.4280 N   0  0  0  0  0  0  0  0  0  0  0  0
   -1.8050   -0.8830    0.9560 N   0  0  0  0  0  0  0  0  0  0  0  0
   -1.3830   -2.0060    1.5530 N   0  0  0  0  0  0  0  0  0  0  0  0
    1.5340    1.9850    0.3760 C   0  0  0  0  0  0  0  0  0  0  0  0
   -0.0710   -2.2380    1.2980 C   0  0  0  0  0  0  0  0  0  0  0  0
    1.5750    0.3120   -1.6400 O   0  0  0  0  0  0  0  0  0  0  0  0
    0.3750    2.5110   -1.8960 O   0  0  0  0  0  0  0  0  0  0  0  0
    2.4240    1.1570    1.0590 C   0  0  0  0  0  0  0  0  0  0  0  0
    3.0640    1.6470    2.1970 C   0  0  0  0  0  0  0  0  0  0  0  0
    2.8150    2.9480    2.6360 C   0  0  0  0  0  0  0  0  0  0  0  0
   -2.2850   -2.8040    2.3530 C   0  0  0  0  0  0  0  0  0  0  0  0
    1.2800    3.2820    0.7980 C   0  0  0  0  0  0  0  0  0  0  0  0
    1.9240    3.7640    1.9370 C   0  0  0  0  0  0  0  0  0  0  0  0
   -3.1300   -3.7390    1.5070 C   0  0  0  0  0  0  0  0  0  0  0  0
   -4.3290   -3.2890    0.9430 C   0  0  0  0  0  0  0  0  0  0  0  0
   -5.0910   -4.1400    0.1410 C   0  0  0  0  0  0  0  0  0  0  0  0
   -6.5570   -3.5960   -0.5360 Cl  0  0  0  0  0  0  0  0  0  0  0  0
   -3.4570   -5.8900    0.4400 C   0  0  0  0  0  0  0  0  0  0  0  0
    4.0210    0.7820    2.9530 C   0  0  0  0  0  0  0  0  0  0  0  0
   -2.6920   -5.0410    1.2430 C   0  0  0  0  0  0  0  0  0  0  0  0
    3.5050    3.4630    3.8570 C   0  0  0  0  0  0  0  0  0  0  0  0
   -4.6560   -5.4400   -0.1090 C   0  0  0  0  0  0  0  0  0  0  0  0
   -1.5480    1.1850   -0.5940 H   0  0  0  0  0  0  0  0  0  0  0  0
    0.4980   -3.0780    1.6680 H   0  0  0  0  0  0  0  0  0  0  0  0
    2.6150    0.1520    0.7120 H   0  0  0  0  0  0  0  0  0  0  0  0
   -2.9470   -2.1370    2.9060 H   0  0  0  0  0  0  0  0  0  0  0  0
   -1.6990   -3.3980    3.0540 H   0  0  0  0  0  0  0  0  0  0  0  0
    0.5920    3.9100    0.2510 H   0  0  0  0  0  0  0  0  0  0  0  0
    1.7330    4.7700    2.2790 H   0  0  0  0  0  0  0  0  0  0  0  0
   -4.6660   -2.2800    1.1290 H   0  0  0  0  0  0  0  0  0  0  0  0
   -3.1190   -6.8970    0.2440 H   0  0  0  0  0  0  0  0  0  0  0  0
    4.0900   -0.1920    2.4690 H   0  0  0  0  0  0  0  0  0  0  0  0
    3.6660    0.6550    3.9760 H   0  0  0  0  0  0  0  0  0  0  0  0
    5.0040    1.2520    2.9650 H   0  0  0  0  0  0  0  0  0  0  0  0
   -1.7600   -5.3910    1.6610 H   0  0  0  0  0  0  0  0  0  0  0  0
    4.1560    2.6870    4.2610 H   0  0  0  0  0  0  0  0  0  0  0  0
    2.7620    3.7400    4.6050 H   0  0  0  0  0  0  0  0  0  0  0  0
    4.1010    4.3380    3.5960 H   0  0  0  0  0  0  0  0  0  0  0  0
   -5.2480   -6.0980   -0.7280 H   0  0  0  0  0  0  0  0  0  0  0  0
  1  4  1  0  0  0  0
  1  7  1  0  0  0  0
  1  9  2  0  0  0  0
  1 10  2  0  0  0  0
  2  3  1  0  0  0  0
  2  4  1  0  0  0  0
  2  5  2  0  0  0  0
  3  8  2  0  0  0  0
  4 26  1  0  0  0  0
  5  6  1  0  0  0  0
  6  8  1  0  0  0  0
  6 14  1  0  0  0  0
  7 11  1  0  0  0  0
  7 15  2  0  0  0  0
  8 27  1  0  0  0  0
 11 12  2  0  0  0  0
 11 28  1  0  0  0  0
 12 13  1  0  0  0  0
 12 22  1  0  0  0  0
 13 16  2  0  0  0  0
 13 24  1  0  0  0  0
 14 17  1  0  0  0  0
 14 29  1  0  0  0  0
 14 30  1  0  0  0  0
 15 16  1  0  0  0  0
 15 31  1  0  0  0  0
 16 32  1  0  0  0  0
 17 18  2  0  0  0  0
 17 23  1  0  0  0  0
 18 19  1  0  0  0  0
 18 33  1  0  0  0  0
 19 20  1  0  0  0  0
 19 25  2  0  0  0  0
 21 23  2  0  0  0  0
 21 25  1  0  0  0  0
 21 34  1  0  0  0  0
 22 35  1  0  0  0  0
 22 36  1  0  0  0  0
 22 37  1  0  0  0  0
 23 38  1  0  0  0  0
 24 39  1  0  0  0  0
 24 40  1  0  0  0  0
 24 41  1  0  0  0  0
 25 42  1  0  0  0  0
M  END
>  <$CLUSTER>
791

>  <INDEX>
518655

$$$$
Nanosyn NS40942
 OpenBabel04062209303D

 47 49  0  0  0  0  0  0  0  0999 V2000
    0.5050    2.0520   -0.7350 S   0  0  0  0  0  0  0  0  0  0  0  0
    1.7710    1.4840    4.3480 C   0  0  0  0  0  0  0  0  0  0  0  0
    0.6050    0.4240   -1.2640 N   0  0  0  0  0  0  0  0  0  0  0  0
    1.6930    2.0340    0.5890 C   0  0  0  0  0  0  0  0  0  0  0  0
    0.6720    0.6710    4.5170 N   0  0  0  0  0  0  0  0  0  0  0  0
    2.1810    1.7790    2.9560 C   0  0  0  0  0  0  0  0  0  0  0  0
    1.0520    2.8960   -1.7810 O   0  0  0  0  0  0  0  0  0  0  0  0
   -0.7960    2.3370   -0.1630 O   0  0  0  0  0  0  0  0  0  0  0  0
    1.2650    1.7540    1.9030 C   0  0  0  0  0  0  0  0  0  0  0  0
    2.4140    1.9460    5.2880 O   0  0  0  0  0  0  0  0  0  0  0  0
    0.0220   -0.5940   -0.4320 C   0  0  0  0  0  0  0  0  0  0  0  0
    0.0260    0.1980    5.6410 C   0  0  0  0  0  0  0  0  0  0  0  0
   -1.0630   -2.5590    1.2270 C   0  0  0  0  0  0  0  0  0  0  0  0
   -1.3670   -0.8250    7.8560 C   0  0  0  0  0  0  0  0  0  0  0  0
    0.4430    0.5010    6.9400 C   0  0  0  0  0  0  0  0  0  0  0  0
   -1.0970   -0.6240    5.4650 C   0  0  0  0  0  0  0  0  0  0  0  0
   -1.3610   -0.6700   -0.2530 C   0  0  0  0  0  0  0  0  0  0  0  0
    0.8630   -1.5010    0.2200 C   0  0  0  0  0  0  0  0  0  0  0  0
   -1.9010   -1.6540    0.5760 C   0  0  0  0  0  0  0  0  0  0  0  0
   -1.7900   -1.1330    6.5650 C   0  0  0  0  0  0  0  0  0  0  0  0
   -0.2530   -0.0100    8.0410 C   0  0  0  0  0  0  0  0  0  0  0  0
    0.3180   -2.4830    1.0480 C   0  0  0  0  0  0  0  0  0  0  0  0
    3.0340    2.3720    0.3590 C   0  0  0  0  0  0  0  0  0  0  0  0
    3.5180    2.0990    2.7120 C   0  0  0  0  0  0  0  0  0  0  0  0
    3.9440    2.3950    1.4160 C   0  0  0  0  0  0  0  0  0  0  0  0
   -1.6420   -3.6100    2.1170 C   0  0  0  0  0  0  0  0  0  0  0  0
   -2.1060   -1.3680    9.0340 C   0  0  0  0  0  0  0  0  0  0  0  0
    1.0600    0.1870   -2.1340 H   0  0  0  0  0  0  0  0  0  0  0  0
    0.2580    0.3610    3.6490 H   0  0  0  0  0  0  0  0  0  0  0  0
    0.2280    1.5200    2.0950 H   0  0  0  0  0  0  0  0  0  0  0  0
    1.3060    1.1320    7.0950 H   0  0  0  0  0  0  0  0  0  0  0  0
   -1.4300   -0.8660    4.4660 H   0  0  0  0  0  0  0  0  0  0  0  0
   -2.0110    0.0310   -0.7550 H   0  0  0  0  0  0  0  0  0  0  0  0
    1.9330   -1.4420    0.0830 H   0  0  0  0  0  0  0  0  0  0  0  0
   -2.9700   -1.7150    0.7140 H   0  0  0  0  0  0  0  0  0  0  0  0
   -2.6530   -1.7650    6.4150 H   0  0  0  0  0  0  0  0  0  0  0  0
    0.0760    0.2290    9.0410 H   0  0  0  0  0  0  0  0  0  0  0  0
    0.9660   -3.1850    1.5510 H   0  0  0  0  0  0  0  0  0  0  0  0
    3.3640    2.6150   -0.6400 H   0  0  0  0  0  0  0  0  0  0  0  0
    4.2250    2.1180    3.5280 H   0  0  0  0  0  0  0  0  0  0  0  0
    4.9790    2.6420    1.2320 H   0  0  0  0  0  0  0  0  0  0  0  0
   -2.7280   -3.5140    2.1330 H   0  0  0  0  0  0  0  0  0  0  0  0
   -1.2510   -3.4870    3.1270 H   0  0  0  0  0  0  0  0  0  0  0  0
   -1.3700   -4.5960    1.7400 H   0  0  0  0  0  0  0  0  0  0  0  0
   -2.9410   -1.9780    8.6890 H   0  0  0  0  0  0  0  0  0  0  0  0
   -2.4840   -0.5430    9.6380 H   0  0  0  0  0  0  0  0  0  0  0  0
   -1.4330   -1.9790    9.6350 H   0  0  0  0  0  0  0  0  0  0  0  0
  1  3  1  0  0  0  0
  1  4  1  0  0  0  0
  1  7  2  0  0  0  0
  1  8  2  0  0  0  0
  2  5  1  0  0  0  0
  2  6  1  0  0  0  0
  2 10  2  0  0  0  0
  3 11  1  0  0  0  0
  3 28  1  0  0  0  0
  4  9  2  0  0  0  0
  4 23  1  0  0  0  0
  5 12  1  0  0  0  0
  5 29  1  0  0  0  0
  6  9  1  0  0  0  0
  6 24  2  0  0  0  0
  9 30  1  0  0  0  0
 11 17  2  0  0  0  0
 11 18  1  0  0  0  0
 12 15  1  0  0  0  0
 12 16  2  0  0  0  0
 13 19  2  0  0  0  0
 13 22  1  0  0  0  0
 13 26  1  0  0  0  0
 14 20  2  0  0  0  0
 14 21  1  0  0  0  0
 14 27  1  0  0  0  0
 15 21  2  0  0  0  0
 15 31  1  0  0  0  0
 16 20  1  0  0  0  0
 16 32  1  0  0  0  0
 17 19  1  0  0  0  0
 17 33  1  0  0  0  0
 18 22  2  0  0  0  0
 18 34  1  0  0  0  0
 19 35  1  0  0  0  0
 20 36  1  0  0  0  0
 21 37  1  0  0  0  0
 22 38  1  0  0  0  0
 23 25  2  0  0  0  0
 23 39  1  0  0  0  0
 24 25  1  0  0  0  0
 24 40  1  0  0  0  0
 25 41  1  0  0  0  0
 26 42  1  0  0  0  0
 26 43  1  0  0  0  0
 26 44  1  0  0  0  0
 27 45  1  0  0  0  0
 27 46  1  0  0  0  0
 27 47  1  0  0  0  0
M  END
>  <$CLUSTER>
85

>  <INDEX>
565184

$$$$
Comgenex CGX-3127127
 OpenBabel04062209303D

 50 52  0  0  1  0  0  0  0  0999 V2000
    1.4260   -0.4320   -0.7710 S   0  0  0  0  0  0  0  0  0  0  0  0
   -0.2210   -0.4340   -0.3150 C   0  0  0  0  0  0  0  0  0  0  0  0
    1.2320   -2.0770   -1.2040 C   0  0  0  0  0  0  0  0  0  0  0  0
    0.0230   -2.5540   -1.0090 N   0  0  0  0  0  0  0  0  0  0  0  0
   -0.8550    0.6850    0.1920 N   0  0  0  0  0  0  0  0  0  0  0  0
   -0.8240   -1.5930   -0.4900 N   0  0  0  0  0  0  0  0  0  0  0  0
   -0.2910    1.9350    0.4050 C   0  0  0  0  0  0  0  0  0  0  0  0
   -2.3900    3.2290   -0.0020 N   0  0  0  0  0  0  0  0  0  0  0  0
   -3.6830    3.4810    0.3370 C   0  0  0  0  0  0  0  0  0  0  0  0
   -1.3070    2.8960    0.9710 C   0  0  2  0  0  0  0  0  0  0  0  0
    2.3530   -2.8960   -1.7570 C   0  0  0  0  0  0  0  0  0  0  0  0
   -4.5420    3.7550   -0.8670 C   0  0  0  0  0  0  0  0  0  0  0  0
    0.8620    2.2980    0.1920 O   0  0  0  0  0  0  0  0  0  0  0  0
   -4.1300    3.5270    1.4810 O   0  0  0  0  0  0  0  0  0  0  0  0
    2.1100   -4.2360   -2.1100 C   0  0  0  0  0  0  0  0  0  0  0  0
    3.6520   -2.3950   -1.9480 C   0  0  0  0  0  0  0  0  0  0  0  0
   -5.7170    4.5350   -0.6290 C   0  0  0  0  0  0  0  0  0  0  0  0
   -4.3140    3.2410   -2.1140 C   0  0  0  0  0  0  0  0  0  0  0  0
   -0.7010    4.2310    1.4600 C   0  0  0  0  0  0  0  0  0  0  0  0
   -6.3210    4.2980   -2.9560 C   0  0  0  0  0  0  0  0  0  0  0  0
   -6.5870    4.8070   -1.6870 C   0  0  0  0  0  0  0  0  0  0  0  0
   -5.1880    3.5150   -3.1690 C   0  0  0  0  0  0  0  0  0  0  0  0
    3.1250   -5.0440   -2.6320 C   0  0  0  0  0  0  0  0  0  0  0  0
    4.6660   -3.2040   -2.4700 C   0  0  0  0  0  0  0  0  0  0  0  0
    4.4030   -4.5280   -2.8120 C   0  0  0  0  0  0  0  0  0  0  0  0
   -7.3880    4.6410   -4.2380 Cl  0  0  0  0  0  0  0  0  0  0  0  0
   -1.6560    5.1170    2.2550 C   0  0  0  0  0  0  0  0  0  0  0  0
    0.0040    5.0600    0.3800 C   0  0  0  0  0  0  0  0  0  0  0  0
    5.4860   -5.3900   -3.3700 C   0  0  0  0  0  0  0  0  0  0  0  0
   -1.8310    0.5820    0.4330 H   0  0  0  0  0  0  0  0  0  0  0  0
   -2.1450    3.2700   -0.9810 H   0  0  0  0  0  0  0  0  0  0  0  0
   -1.7160    2.3550    1.8250 H   0  0  0  0  0  0  0  0  0  0  0  0
    1.1210   -4.6480   -1.9750 H   0  0  0  0  0  0  0  0  0  0  0  0
    3.8700   -1.3700   -1.6880 H   0  0  0  0  0  0  0  0  0  0  0  0
   -5.9300    4.9110    0.3610 H   0  0  0  0  0  0  0  0  0  0  0  0
   -3.4490    2.6170   -2.2850 H   0  0  0  0  0  0  0  0  0  0  0  0
    0.0670    3.8770    2.1480 H   0  0  0  0  0  0  0  0  0  0  0  0
   -7.4660    5.4120   -1.5210 H   0  0  0  0  0  0  0  0  0  0  0  0
   -4.9850    3.1190   -4.1530 H   0  0  0  0  0  0  0  0  0  0  0  0
    2.9160   -6.0700   -2.8960 H   0  0  0  0  0  0  0  0  0  0  0  0
    5.6580   -2.8000   -2.6090 H   0  0  0  0  0  0  0  0  0  0  0  0
   -2.4400    5.4900    1.5950 H   0  0  0  0  0  0  0  0  0  0  0  0
   -1.1050    5.9580    2.6770 H   0  0  0  0  0  0  0  0  0  0  0  0
   -2.1050    4.5360    3.0610 H   0  0  0  0  0  0  0  0  0  0  0  0
   -0.7330    5.4340   -0.3300 H   0  0  0  0  0  0  0  0  0  0  0  0
    0.7280    4.4350   -0.1430 H   0  0  0  0  0  0  0  0  0  0  0  0
    0.5190    5.9010    0.8450 H   0  0  0  0  0  0  0  0  0  0  0  0
    5.0900   -6.3850   -3.5740 H   0  0  0  0  0  0  0  0  0  0  0  0
    6.3000   -5.4640   -2.6490 H   0  0  0  0  0  0  0  0  0  0  0  0
    5.8590   -4.9510   -4.2950 H   0  0  0  0  0  0  0  0  0  0  0  0
  1  2  1  0  0  0  0
  1  3  1  0  0  0  0
  2  5  1  0  0  0  0
  2  6  2  0  0  0  0
  3  4  2  0  0  0  0
  3 11  1  0  0  0  0
  4  6  1  0  0  0  0
  5  7  1  0  0  0  0
  5 30  1  0  0  0  0
  7 10  1  0  0  0  0
  7 13  2  0  0  0  0
  8  9  1  0  0  0  0
  8 10  1  0  0  0  0
  8 31  1  0  0  0  0
  9 12  1  0  0  0  0
  9 14  2  0  0  0  0
 10 19  1  0  0  0  0
 10 32  1  1  0  0  0
 11 15  2  0  0  0  0
 11 16  1  0  0  0  0
 12 17  2  0  0  0  0
 12 18  1  0  0  0  0
 15 23  1  0  0  0  0
 15 33  1  0  0  0  0
 16 24  2  0  0  0  0
 16 34  1  0  0  0  0
 17 21  1  0  0  0  0
 17 35  1  0  0  0  0
 18 22  2  0  0  0  0
 18 36  1  0  0  0  0
 19 27  1  0  0  0  0
 19 28  1  0  0  0  0
 19 37  1  0  0  0  0
 20 21  2  0  0  0  0
 20 22  1  0  0  0  0
 20 26  1  0  0  0  0
 21 38  1  0  0  0  0
 22 39  1  0  0  0  0
 23 25  2  0  0  0  0
 23 40  1  0  0  0  0
 24 25  1  0  0  0  0
 24 41  1  0  0  0  0
 25 29  1  0  0  0  0
 27 42  1  0  0  0  0
 27 43  1  0  0  0  0
 27 44  1  0  0  0  0
 28 45  1  0  0  0  0
 28 46  1  0  0  0  0
 28 47  1  0  0  0  0
 29 48  1  0  0  0  0
 29 49  1  0  0  0  0
 29 50  1  0  0  0  0
M  END
>  <$CLUSTER>
391

>  <INDEX>
260085

$$$$
Pharmeks PHAR059863
 OpenBabel04062209303D

 40 42  0  0  0  0  0  0  0  0999 V2000
    1.2650   -1.2950   -0.6470 S   0  0  0  0  0  0  0  0  0  0  0  0
   -0.0560   -0.3190    0.0080 C   0  0  0  0  0  0  0  0  0  0  0  0
    2.1200    0.2100   -0.9530 C   0  0  0  0  0  0  0  0  0  0  0  0
   -1.1050   -0.9220    0.4520 N   0  0  0  0  0  0  0  0  0  0  0  0
    1.5260    1.3150   -0.6220 N   0  0  0  0  0  0  0  0  0  0  0  0
   -2.1470   -0.1860    0.9670 C   0  0  0  0  0  0  0  0  0  0  0  0
    0.3150    1.0000   -0.0880 N   0  0  0  0  0  0  0  0  0  0  0  0
   -3.1830   -0.9850    1.3950 N   0  0  0  0  0  0  0  0  0  0  0  0
    3.4730    0.1430   -1.5720 C   0  0  0  0  0  0  0  0  0  0  0  0
   -2.2070    1.0400    1.0600 O   0  0  0  0  0  0  0  0  0  0  0  0
    4.2800    1.2930   -1.4370 C   0  0  0  0  0  0  0  0  0  0  0  0
    3.9410   -0.9480   -2.2700 C   0  0  0  0  0  0  0  0  0  0  0  0
   -4.4350   -0.6770    1.9820 C   0  0  0  0  0  0  0  0  0  0  0  0
    6.0310    0.1990   -2.6930 C   0  0  0  0  0  0  0  0  0  0  0  0
    5.5600    1.3090   -1.9980 C   0  0  0  0  0  0  0  0  0  0  0  0
    5.2220   -0.9270   -2.8300 C   0  0  0  0  0  0  0  0  0  0  0  0
    7.3030    0.3410   -3.2010 O   0  0  0  0  0  0  0  0  0  0  0  0
    7.8410   -0.7630   -3.9280 C   0  0  0  0  0  0  0  0  0  0  0  0
   -4.8410    0.6360    2.2380 C   0  0  0  0  0  0  0  0  0  0  0  0
   -5.2990   -1.7300    2.3190 C   0  0  0  0  0  0  0  0  0  0  0  0
    9.2380   -0.3850   -4.3860 C   0  0  0  0  0  0  0  0  0  0  0  0
   -6.5430   -1.4750    2.8990 C   0  0  0  0  0  0  0  0  0  0  0  0
   -6.0880    0.8890    2.8190 C   0  0  0  0  0  0  0  0  0  0  0  0
   -6.9380   -0.1640    3.1500 C   0  0  0  0  0  0  0  0  0  0  0  0
   -0.3050    1.7290    0.2350 H   0  0  0  0  0  0  0  0  0  0  0  0
   -3.0200   -1.9740    1.2670 H   0  0  0  0  0  0  0  0  0  0  0  0
    3.9100    2.1560   -0.9030 H   0  0  0  0  0  0  0  0  0  0  0  0
    3.3170   -1.8220   -2.3850 H   0  0  0  0  0  0  0  0  0  0  0  0
    6.1840    2.1840   -1.8920 H   0  0  0  0  0  0  0  0  0  0  0  0
    5.5860   -1.7880   -3.3710 H   0  0  0  0  0  0  0  0  0  0  0  0
    7.2130   -0.9780   -4.7930 H   0  0  0  0  0  0  0  0  0  0  0  0
    7.8870   -1.6420   -3.2850 H   0  0  0  0  0  0  0  0  0  0  0  0
   -4.1890    1.4590    1.9860 H   0  0  0  0  0  0  0  0  0  0  0  0
   -4.9980   -2.7490    2.1270 H   0  0  0  0  0  0  0  0  0  0  0  0
    9.1840    0.4940   -5.0280 H   0  0  0  0  0  0  0  0  0  0  0  0
    9.6750   -1.2150   -4.9420 H   0  0  0  0  0  0  0  0  0  0  0  0
    9.8580   -0.1630   -3.5170 H   0  0  0  0  0  0  0  0  0  0  0  0
   -7.1990   -2.2950    3.1530 H   0  0  0  0  0  0  0  0  0  0  0  0
   -6.3940    1.9070    3.0120 H   0  0  0  0  0  0  0  0  0  0  0  0
   -7.8990    0.0360    3.5990 H   0  0  0  0  0  0  0  0  0  0  0  0
  1  2  1  0  0  0  0
  1  3  1  0  0  0  0
  2  4  2  0  0  0  0
  2  7  1  0  0  0  0
  3  5  2  0  0  0  0
  3  9  1  0  0  0  0
  4  6  1  0  0  0  0
  5  7  1  0  0  0  0
  6  8  1  0  0  0  0
  6 10  2  0  0  0  0
  7 25  1  0  0  0  0
  8 13  1  0  0  0  0
  8 26  1  0  0  0  0
  9 11  2  0  0  0  0
  9 12  1  0  0  0  0
 11 15  1  0  0  0  0
 11 27  1  0  0  0  0
 12 16  2  0  0  0  0
 12 28  1  0  0  0  0
 13 19  1  0  0  0  0
 13 20  2  0  0  0  0
 14 15  2  0  0  0  0
 14 16  1  0  0  0  0
 14 17  1  0  0  0  0
 15 29  1  0  0  0  0
 16 30  1  0  0  0  0
 17 18  1  0  0  0  0
 18 21  1  0  0  0  0
 18 31  1  0  0  0  0
 18 32  1  0  0  0  0
 19 23  2  0  0  0  0
 19 33  1  0  0  0  0
 20 22  1  0  0  0  0
 20 34  1  0  0  0  0
 21 35  1  0  0  0  0
 21 36  1  0  0  0  0
 21 37  1  0  0  0  0
 22 24  2  0  0  0  0
 22 38  1  0  0  0  0
 23 24  1  0  0  0  0
 23 39  1  0  0  0  0
 24 40  1  0  0  0  0
M  END
>  <$CLUSTER>
928

>  <INDEX>
599906

$$$$
Lithuania 1050567
 OpenBabel04062209303D

 41 43  0  0  0  0  0  0  0  0999 V2000
    1.2270    0.1670    0.3400 C   0  0  0  0  0  0  0  0  0  0  0  0
    0.3380    1.1920    0.1200 N   0  0  0  0  0  0  0  0  0  0  0  0
   -1.0620   -0.6390   -0.3060 C   0  0  0  0  0  0  0  0  0  0  0  0
   -0.9450    0.8390   -0.2390 C   0  0  0  0  0  0  0  0  0  0  0  0
    0.4430   -1.3730    0.0890 S   0  0  0  0  0  0  0  0  0  0  0  0
   -2.2010   -1.2570   -0.6320 C   0  0  0  0  0  0  0  0  0  0  0  0
    2.4520    0.3840    0.6800 N   0  0  0  0  0  0  0  0  0  0  0  0
   -2.4460   -2.7290   -0.7330 C   0  0  0  0  0  0  0  0  0  0  0  0
    5.8240   -4.2210    1.4310 C   0  0  0  0  0  0  0  0  0  0  0  0
   -1.8730    1.6060   -0.4760 O   0  0  0  0  0  0  0  0  0  0  0  0
    4.9200   -2.9870    1.2790 C   0  0  0  0  0  0  0  0  0  0  0  0
   -3.2210   -3.2620   -1.7480 C   0  0  0  0  0  0  0  0  0  0  0  0
   -1.8630   -3.5590    0.2430 C   0  0  0  0  0  0  0  0  0  0  0  0
    6.0380   -4.9310    0.4060 O   0  0  0  0  0  0  0  0  0  0  0  0
    3.3350   -0.7710    0.8960 C   0  0  0  0  0  0  0  0  0  0  0  0
    0.7330    2.5810    0.2610 C   0  0  0  0  0  0  0  0  0  0  0  0
    4.8350   -2.3990    0.0160 C   0  0  0  0  0  0  0  0  0  0  0  0
    4.1960   -2.4530    2.3460 C   0  0  0  0  0  0  0  0  0  0  0  0
   -3.4230   -4.6490   -1.7910 C   0  0  0  0  0  0  0  0  0  0  0  0
   -2.0710   -4.9370    0.1880 C   0  0  0  0  0  0  0  0  0  0  0  0
    6.2370   -4.3920    2.6150 O   0  5  0  0  0  0  0  0  0  0  0  0
    3.3850   -1.3330    2.1490 C   0  0  0  0  0  0  0  0  0  0  0  0
    4.0230   -1.2800   -0.1800 C   0  0  0  0  0  0  0  0  0  0  0  0
   -2.8480   -5.4800   -0.8280 C   0  0  0  0  0  0  0  0  0  0  0  0
   -1.3790   -5.9620    1.3580 Cl  0  0  0  0  0  0  0  0  0  0  0  0
   -3.7490   -2.3780   -2.6590 O   0  0  0  0  0  0  0  0  0  0  0  0
   -4.5650   -2.9100   -3.6940 C   0  0  0  0  0  0  0  0  0  0  0  0
   -3.0440   -0.6180   -0.8480 H   0  0  0  0  0  0  0  0  0  0  0  0
   -1.2590   -3.1320    1.0290 H   0  0  0  0  0  0  0  0  0  0  0  0
   -0.1190    3.2250    0.0420 H   0  0  0  0  0  0  0  0  0  0  0  0
    1.5430    2.8010   -0.4350 H   0  0  0  0  0  0  0  0  0  0  0  0
    1.0720    2.7610    1.2810 H   0  0  0  0  0  0  0  0  0  0  0  0
    5.3970   -2.8090   -0.8100 H   0  0  0  0  0  0  0  0  0  0  0  0
    4.2630   -2.9060    3.3240 H   0  0  0  0  0  0  0  0  0  0  0  0
   -4.0290   -5.0780   -2.5760 H   0  0  0  0  0  0  0  0  0  0  0  0
    2.8100   -0.9180    2.9630 H   0  0  0  0  0  0  0  0  0  0  0  0
    3.9370   -0.8240   -1.1550 H   0  0  0  0  0  0  0  0  0  0  0  0
   -3.0070   -6.5470   -0.8730 H   0  0  0  0  0  0  0  0  0  0  0  0
   -4.9110   -2.1000   -4.3360 H   0  0  0  0  0  0  0  0  0  0  0  0
   -5.4240   -3.4180   -3.2550 H   0  0  0  0  0  0  0  0  0  0  0  0
   -3.9860   -3.6200   -4.2850 H   0  0  0  0  0  0  0  0  0  0  0  0
  1  2  1  0  0  0  0
  1  5  1  0  0  0  0
  1  7  2  0  0  0  0
  2  4  1  0  0  0  0
  2 16  1  0  0  0  0
  3  4  1  0  0  0  0
  3  5  1  0  0  0  0
  3  6  2  0  0  0  0
  4 10  2  0  0  0  0
  6  8  1  0  0  0  0
  6 28  1  0  0  0  0
  7 15  1  0  0  0  0
  8 12  1  0  0  0  0
  8 13  2  0  0  0  0
  9 11  1  0  0  0  0
  9 14  2  0  0  0  0
  9 21  1  0  0  0  0
 11 17  1  0  0  0  0
 11 18  2  0  0  0  0
 12 19  2  0  0  0  0
 12 26  1  0  0  0  0
 13 20  1  0  0  0  0
 13 29  1  0  0  0  0
 15 22  2  0  0  0  0
 15 23  1  0  0  0  0
 16 30  1  0  0  0  0
 16 31  1  0  0  0  0
 16 32  1  0  0  0  0
 17 23  2  0  0  0  0
 17 33  1  0  0  0  0
 18 22  1  0  0  0  0
 18 34  1  0  0  0  0
 19 24  1  0  0  0  0
 19 35  1  0  0  0  0
 20 24  2  0  0  0  0
 20 25  1  0  0  0  0
 22 36  1  0  0  0  0
 23 37  1  0  0  0  0
 24 38  1  0  0  0  0
 26 27  1  0  0  0  0
 27 39  1  0  0  0  0
 27 40  1  0  0  0  0
 27 41  1  0  0  0  0
M  CHG  1  21  -1
M  END
>  <$CLUSTER>
102

>  <INDEX>
222602

$$$$
Chem T&I AMCLME-04601
 OpenBabel04062209303D

 50 52  0  0  0  0  0  0  0  0999 V2000
   -1.2660    1.1460   -0.4770 S   0  0  0  0  0  0  0  0  0  0  0  0
   -2.6300    0.3030    0.0970 N   0  0  0  0  0  0  0  0  0  0  0  0
    0.0200    0.0250   -0.0150 C   0  0  0  0  0  0  0  0  0  0  0  0
   -6.0240   -2.4730    3.0370 C   0  0  0  0  0  0  0  0  0  0  0  0
   -4.6170   -1.4830    1.2250 N   0  3  0  0  0  0  0  0  0  0  0  0
   -1.0970    2.3580    0.3000 O   0  0  0  0  0  0  0  0  0  0  0  0
   -1.3130    1.1930   -1.9250 O   0  0  0  0  0  0  0  0  0  0  0  0
   -2.8390    0.1980    1.5680 C   0  0  0  0  0  0  0  0  0  0  0  0
   -3.0510   -0.9400   -0.6070 C   0  0  0  0  0  0  0  0  0  0  0  0
   -7.2630   -2.9160    3.4020 N   0  0  0  0  0  0  0  0  0  0  0  0
   -5.9860   -1.9660    1.6100 C   0  0  0  0  0  0  0  0  0  0  0  0
   -5.0380   -2.4770    3.7700 O   0  0  0  0  0  0  0  0  0  0  0  0
   -4.2520   -0.1990    1.9210 C   0  0  0  0  0  0  0  0  0  0  0  0
   -4.4640   -1.3440   -0.2670 C   0  0  0  0  0  0  0  0  0  0  0  0
    0.4300   -0.9590   -0.9150 C   0  0  0  0  0  0  0  0  0  0  0  0
    0.6380    0.1630    1.2280 C   0  0  0  0  0  0  0  0  0  0  0  0
   -7.7170   -3.4580    4.6270 C   0  0  0  0  0  0  0  0  0  0  0  0
    2.0840   -1.6990    0.6870 C   0  0  0  0  0  0  0  0  0  0  0  0
    1.4640   -1.8240   -0.5570 C   0  0  0  0  0  0  0  0  0  0  0  0
    1.6710   -0.7070    1.5770 C   0  0  0  0  0  0  0  0  0  0  0  0
   -8.7320   -4.5470    7.0100 C   0  0  0  0  0  0  0  0  0  0  0  0
    3.3450   -2.7630    1.1110 Cl  0  0  0  0  0  0  0  0  0  0  0  0
   -6.8840   -3.6330    5.7360 C   0  0  0  0  0  0  0  0  0  0  0  0
   -9.0650   -3.8360    4.7270 C   0  0  0  0  0  0  0  0  0  0  0  0
   -9.5690   -4.3770    5.9110 C   0  0  0  0  0  0  0  0  0  0  0  0
   -7.3920   -4.1760    6.9210 C   0  0  0  0  0  0  0  0  0  0  0  0
   -9.2720   -5.1260    8.2750 C   0  0  0  0  0  0  0  0  0  0  0  0
   -3.9700   -2.1940    1.5350 H   0  0  0  0  0  0  0  0  0  0  0  0
   -2.6230    1.1650    2.0220 H   0  0  0  0  0  0  0  0  0  0  0  0
   -2.1550   -0.5510    1.9660 H   0  0  0  0  0  0  0  0  0  0  0  0
   -2.3780   -1.7490   -0.3220 H   0  0  0  0  0  0  0  0  0  0  0  0
   -2.9840   -0.7730   -1.6820 H   0  0  0  0  0  0  0  0  0  0  0  0
   -7.9680   -2.8450    2.6820 H   0  0  0  0  0  0  0  0  0  0  0  0
   -6.6920   -1.1420    1.5100 H   0  0  0  0  0  0  0  0  0  0  0  0
   -6.2760   -2.7760    0.9400 H   0  0  0  0  0  0  0  0  0  0  0  0
   -4.3290   -0.3390    2.9990 H   0  0  0  0  0  0  0  0  0  0  0  0
   -4.9370    0.5890    1.6070 H   0  0  0  0  0  0  0  0  0  0  0  0
   -5.1540   -0.5830   -0.6310 H   0  0  0  0  0  0  0  0  0  0  0  0
   -4.6910   -2.2980   -0.7430 H   0  0  0  0  0  0  0  0  0  0  0  0
   -0.0480   -1.0500   -1.8790 H   0  0  0  0  0  0  0  0  0  0  0  0
    0.3200    0.9350    1.9130 H   0  0  0  0  0  0  0  0  0  0  0  0
    1.7860   -2.5920   -1.2440 H   0  0  0  0  0  0  0  0  0  0  0  0
    2.1530   -0.6120    2.5390 H   0  0  0  0  0  0  0  0  0  0  0  0
   -5.8440   -3.3480    5.6780 H   0  0  0  0  0  0  0  0  0  0  0  0
   -9.7200   -3.7070    3.8780 H   0  0  0  0  0  0  0  0  0  0  0  0
  -10.6080   -4.6640    5.9740 H   0  0  0  0  0  0  0  0  0  0  0  0
   -6.7410   -4.3080    7.7730 H   0  0  0  0  0  0  0  0  0  0  0  0
  -10.3310   -5.3510    8.1490 H   0  0  0  0  0  0  0  0  0  0  0  0
   -9.1470   -4.4080    9.0860 H   0  0  0  0  0  0  0  0  0  0  0  0
   -8.7320   -6.0420    8.5150 H   0  0  0  0  0  0  0  0  0  0  0  0
  1  2  1  0  0  0  0
  1  3  1  0  0  0  0
  1  6  2  0  0  0  0
  1  7  2  0  0  0  0
  2  8  1  0  0  0  0
  2  9  1  0  0  0  0
  3 15  2  0  0  0  0
  3 16  1  0  0  0  0
  4 10  1  0  0  0  0
  4 11  1  0  0  0  0
  4 12  2  0  0  0  0
  5 11  1  0  0  0  0
  5 13  1  0  0  0  0
  5 14  1  0  0  0  0
  5 28  1  0  0  0  0
  8 13  1  0  0  0  0
  8 29  1  0  0  0  0
  8 30  1  0  0  0  0
  9 14  1  0  0  0  0
  9 31  1  0  0  0  0
  9 32  1  0  0  0  0
 10 17  1  0  0  0  0
 10 33  1  0  0  0  0
 11 34  1  0  0  0  0
 11 35  1  0  0  0  0
 13 36  1  0  0  0  0
 13 37  1  0  0  0  0
 14 38  1  0  0  0  0
 14 39  1  0  0  0  0
 15 19  1  0  0  0  0
 15 40  1  0  0  0  0
 16 20  2  0  0  0  0
 16 41  1  0  0  0  0
 17 23  1  0  0  0  0
 17 24  2  0  0  0  0
 18 19  2  0  0  0  0
 18 20  1  0  0  0  0
 18 22  1  0  0  0  0
 19 42  1  0  0  0  0
 20 43  1  0  0  0  0
 21 25  2  0  0  0  0
 21 26  1  0  0  0  0
 21 27  1  0  0  0  0
 23 26  2  0  0  0  0
 23 44  1  0  0  0  0
 24 25  1  0  0  0  0
 24 45  1  0  0  0  0
 25 46  1  0  0  0  0
 26 47  1  0  0  0  0
 27 48  1  0  0  0  0
 27 49  1  0  0  0  0
 27 50  1  0  0  0  0
M  CHG  1   5   1
M  END
>  <$CLUSTER>
776

>  <INDEX>
508152

$$$$
InterBioScreen STOCK4S-52524
 OpenBabel04062209303D

 62 65  0  0  1  0  0  0  0  0999 V2000
    0.8080    4.1080    4.7660 C   0  0  0  0  0  0  0  0  0  0  0  0
    0.0770    2.9840    4.7640 C   0  0  0  0  0  0  0  0  0  0  0  0
    1.5800    1.9680    3.1110 C   0  0  0  0  0  0  0  0  0  0  0  0
    0.3830    5.1790    5.6210 N   0  0  0  0  0  0  0  0  0  0  0  0
   -1.4090    3.8870    6.3860 N   0  0  0  0  0  0  0  0  0  0  0  0
    1.9210    4.2410    3.9680 N   0  0  0  0  0  0  0  0  0  0  0  0
   -0.6630    5.0160    6.3570 C   0  0  0  0  0  0  0  0  0  0  0  0
    2.3420    3.2360    3.1200 C   0  0  0  0  0  0  0  0  0  0  0  0
   -1.1050    2.8090    5.6200 C   0  0  0  0  0  0  0  0  0  0  0  0
    0.4870    1.8800    3.9070 C   0  0  0  0  0  0  0  0  0  0  0  0
    1.9230    0.7490    2.2940 C   0  0  0  0  0  0  0  0  0  0  0  0
    0.9250    0.2280    1.5260 N   0  0  0  0  0  0  0  0  0  0  0  0
   -1.0230    6.1910    7.2210 C   0  0  0  0  0  0  0  0  0  0  0  0
   -2.5330    3.8500    7.2520 C   0  0  0  0  0  0  0  0  0  0  0  0
    3.3740    3.4010    2.3520 N   0  0  0  0  0  0  0  0  0  0  0  0
    1.1420   -0.9570    0.6890 C   0  0  0  0  0  0  0  0  0  0  0  0
   -0.4510    0.7190    1.4050 C   0  0  0  0  0  0  0  0  0  0  0  0
   -1.7700    1.7750    5.6320 O   0  0  0  0  0  0  0  0  0  0  0  0
    3.0660    0.2860    2.3510 O   0  0  0  0  0  0  0  0  0  0  0  0
   -2.8780    4.8820    8.0320 C   0  0  0  0  0  0  0  0  0  0  0  0
   -2.0940    6.0890    8.0120 C   0  0  0  0  0  0  0  0  0  0  0  0
    2.6860    5.5360    3.9870 C   0  0  0  0  0  0  0  0  0  0  0  0
    0.8720   -0.6560   -0.7920 C   0  0  2  0  0  0  0  0  0  0  0  0
   -0.7900    1.0920   -0.0450 C   0  0  1  0  0  0  0  0  0  0  0  0
   -0.5450   -0.1000   -0.9790 C   0  0  0  0  0  0  0  0  0  0  0  0
   -0.1620    7.3860    7.1370 C   0  0  0  0  0  0  0  0  0  0  0  0
    1.0810   -1.9060   -1.6460 C   0  0  0  0  0  0  0  0  0  0  0  0
   -2.2330    1.5810   -0.1570 C   0  0  0  0  0  0  0  0  0  0  0  0
    2.1350    6.5100    2.9570 C   0  0  0  0  0  0  0  0  0  0  0  0
    2.9150    7.8130    2.9690 C   0  0  0  0  0  0  0  0  0  0  0  0
    2.3750    8.7960    1.9440 C   0  0  0  0  0  0  0  0  0  0  0  0
   -0.0940    0.9700    3.9060 H   0  0  0  0  0  0  0  0  0  0  0  0
   -3.1340    2.9530    7.2830 H   0  0  0  0  0  0  0  0  0  0  0  0
    3.8820    4.2740    2.3690 H   0  0  0  0  0  0  0  0  0  0  0  0
    0.4710   -1.7500    1.0170 H   0  0  0  0  0  0  0  0  0  0  0  0
    2.1750   -1.2860    0.8010 H   0  0  0  0  0  0  0  0  0  0  0  0
   -0.5690    1.6010    2.0340 H   0  0  0  0  0  0  0  0  0  0  0  0
   -1.1360   -0.0600    1.7400 H   0  0  0  0  0  0  0  0  0  0  0  0
   -3.7430    4.8090    8.6750 H   0  0  0  0  0  0  0  0  0  0  0  0
   -2.3750    6.9200    8.6430 H   0  0  0  0  0  0  0  0  0  0  0  0
    3.7330    5.3350    3.7620 H   0  0  0  0  0  0  0  0  0  0  0  0
    2.6060    5.9830    4.9780 H   0  0  0  0  0  0  0  0  0  0  0  0
    1.5830    0.1020   -1.1220 H   0  0  0  0  0  0  0  0  0  0  0  0
   -0.1330    1.9070   -0.3500 H   0  0  0  0  0  0  0  0  0  0  0  0
   -1.2690   -0.8840   -0.7560 H   0  0  0  0  0  0  0  0  0  0  0  0
   -0.6680    0.2240   -2.0120 H   0  0  0  0  0  0  0  0  0  0  0  0
    0.6390    7.2070    6.4190 H   0  0  0  0  0  0  0  0  0  0  0  0
    0.2680    7.5940    8.1170 H   0  0  0  0  0  0  0  0  0  0  0  0
   -0.7570    8.2400    6.8130 H   0  0  0  0  0  0  0  0  0  0  0  0
    0.3800   -2.6800   -1.3340 H   0  0  0  0  0  0  0  0  0  0  0  0
    2.1020   -2.2670   -1.5180 H   0  0  0  0  0  0  0  0  0  0  0  0
    0.9110   -1.6620   -2.6950 H   0  0  0  0  0  0  0  0  0  0  0  0
   -2.9120    0.7830    0.1440 H   0  0  0  0  0  0  0  0  0  0  0  0
   -2.4410    1.8660   -1.1880 H   0  0  0  0  0  0  0  0  0  0  0  0
   -2.3760    2.4440    0.4940 H   0  0  0  0  0  0  0  0  0  0  0  0
    1.0900    6.7180    3.1860 H   0  0  0  0  0  0  0  0  0  0  0  0
    2.2070    6.0600    1.9670 H   0  0  0  0  0  0  0  0  0  0  0  0
    3.9600    7.6020    2.7410 H   0  0  0  0  0  0  0  0  0  0  0  0
    2.8420    8.2600    3.9610 H   0  0  0  0  0  0  0  0  0  0  0  0
    2.4440    8.3570    0.9490 H   0  0  0  0  0  0  0  0  0  0  0  0
    2.9610    9.7140    1.9770 H   0  0  0  0  0  0  0  0  0  0  0  0
    1.3330    9.0210    2.1710 H   0  0  0  0  0  0  0  0  0  0  0  0
  1  2  2  0  0  0  0
  1  4  1  0  0  0  0
  1  6  1  0  0  0  0
  2  9  1  0  0  0  0
  2 10  1  0  0  0  0
  3  8  1  0  0  0  0
  3 10  2  0  0  0  0
  3 11  1  0  0  0  0
  4  7  2  0  0  0  0
  5  7  1  0  0  0  0
  5  9  1  0  0  0  0
  5 14  1  0  0  0  0
  6  8  1  0  0  0  0
  6 22  1  0  0  0  0
  7 13  1  0  0  0  0
  8 15  2  0  0  0  0
  9 18  2  0  0  0  0
 10 32  1  0  0  0  0
 11 12  1  0  0  0  0
 11 19  2  0  0  0  0
 12 16  1  0  0  0  0
 12 17  1  0  0  0  0
 13 21  2  0  0  0  0
 13 26  1  0  0  0  0
 14 20  2  0  0  0  0
 14 33  1  0  0  0  0
 15 34  1  0  0  0  0
 16 23  1  0  0  0  0
 16 35  1  0  0  0  0
 16 36  1  0  0  0  0
 17 24  1  0  0  0  0
 17 37  1  0  0  0  0
 17 38  1  0  0  0  0
 20 21  1  0  0  0  0
 20 39  1  0  0  0  0
 21 40  1  0  0  0  0
 22 29  1  0  0  0  0
 22 41  1  0  0  0  0
 22 42  1  0  0  0  0
 23 25  1  0  0  0  0
 23 27  1  0  0  0  0
 23 43  1  6  0  0  0
 24 25  1  0  0  0  0
 24 28  1  0  0  0  0
 24 44  1  6  0  0  0
 25 45  1  0  0  0  0
 25 46  1  0  0  0  0
 26 47  1  0  0  0  0
 26 48  1  0  0  0  0
 26 49  1  0  0  0  0
 27 50  1  0  0  0  0
 27 51  1  0  0  0  0
 27 52  1  0  0  0  0
 28 53  1  0  0  0  0
 28 54  1  0  0  0  0
 28 55  1  0  0  0  0
 29 30  1  0  0  0  0
 29 56  1  0  0  0  0
 29 57  1  0  0  0  0
 30 31  1  0  0  0  0
 30 58  1  0  0  0  0
 30 59  1  0  0  0  0
 31 60  1  0  0  0  0
 31 61  1  0  0  0  0
 31 62  1  0  0  0  0
M  END
>  <$CLUSTER>
662

>  <INDEX>
356790

$$$$
Cerep CER0136666
 OpenBabel04062209303D

 54 57  0  0  0  0  0  0  0  0999 V2000
   -0.9820    0.2830   -1.0830 N   0  0  0  0  0  0  0  0  0  0  0  0
    0.9820   -0.2830    1.0830 N   0  0  0  0  0  0  0  0  0  0  0  0
   -1.4800    0.3030   -2.3320 C   0  0  0  0  0  0  0  0  0  0  0  0
    1.5370   -0.2020    2.2870 C   0  0  0  0  0  0  0  0  0  0  0  0
   -3.9380   -1.8860   -4.3950 C   0  0  0  0  0  0  0  0  0  0  0  0
   -6.8010   -4.6160   -6.4710 C   0  0  0  0  0  0  0  0  0  0  0  0
   -4.4370   -1.8450   -5.6740 N   0  0  0  0  0  0  0  0  0  0  0  0
    2.3930    0.8310    2.5300 N   0  0  0  0  0  0  0  0  0  0  0  0
   -0.0330    1.3000   -0.5920 C   0  0  0  0  0  0  0  0  0  0  0  0
   -1.2520   -0.6880   -0.0050 C   0  0  0  0  0  0  0  0  0  0  0  0
    1.2520    0.6880    0.0050 C   0  0  0  0  0  0  0  0  0  0  0  0
    0.0330   -1.3000    0.5920 C   0  0  0  0  0  0  0  0  0  0  0  0
   -5.3340   -2.6870   -6.3470 C   0  0  0  0  0  0  0  0  0  0  0  0
   -5.9120   -3.8130   -5.7500 C   0  0  0  0  0  0  0  0  0  0  0  0
   -7.1200   -4.3060   -7.7910 C   0  0  0  0  0  0  0  0  0  0  0  0
   -1.1990    1.1580   -3.1770 O   0  0  0  0  0  0  0  0  0  0  0  0
   -2.4410   -0.8020   -2.6940 C   0  0  0  0  0  0  0  0  0  0  0  0
   -4.2440   -2.7630   -3.5790 O   0  0  0  0  0  0  0  0  0  0  0  0
   -6.5510   -3.1900   -8.3950 C   0  0  0  0  0  0  0  0  0  0  0  0
   -2.9870   -0.7690   -4.0790 C   0  0  0  0  0  0  0  0  0  0  0  0
   -5.6630   -2.3850   -7.6770 C   0  0  0  0  0  0  0  0  0  0  0  0
   -7.5430   -5.8160   -6.0110 C   0  0  0  0  0  0  0  0  0  0  0  0
    1.2600   -1.1390    3.2920 C   0  0  0  0  0  0  0  0  0  0  0  0
   -7.9720   -6.4240   -7.3490 C   0  0  0  0  0  0  0  0  0  0  0  0
    2.9670    0.9230    3.7580 C   0  0  0  0  0  0  0  0  0  0  0  0
   -8.1010   -5.2630   -8.3390 C   0  0  0  0  0  0  0  0  0  0  0  0
    1.8620   -1.0220    4.5460 C   0  0  0  0  0  0  0  0  0  0  0  0
    2.7350    0.0300    4.7900 C   0  0  0  0  0  0  0  0  0  0  0  0
   -4.0980   -1.0710   -6.2280 H   0  0  0  0  0  0  0  0  0  0  0  0
   -0.5260    1.8920    0.1790 H   0  0  0  0  0  0  0  0  0  0  0  0
    0.2450    1.9470   -1.4240 H   0  0  0  0  0  0  0  0  0  0  0  0
   -1.8650   -1.4940   -0.4090 H   0  0  0  0  0  0  0  0  0  0  0  0
   -1.7970   -0.1810    0.7910 H   0  0  0  0  0  0  0  0  0  0  0  0
    1.7970    0.1810   -0.7910 H   0  0  0  0  0  0  0  0  0  0  0  0
    1.8650    1.4940    0.4090 H   0  0  0  0  0  0  0  0  0  0  0  0
   -0.2450   -1.9470    1.4240 H   0  0  0  0  0  0  0  0  0  0  0  0
    0.5260   -1.8920   -0.1790 H   0  0  0  0  0  0  0  0  0  0  0  0
   -5.6700   -4.0630   -4.7280 H   0  0  0  0  0  0  0  0  0  0  0  0
   -3.2830   -0.7510   -2.0030 H   0  0  0  0  0  0  0  0  0  0  0  0
   -1.9210   -1.7510   -2.5640 H   0  0  0  0  0  0  0  0  0  0  0  0
   -6.7950   -2.9460   -9.4180 H   0  0  0  0  0  0  0  0  0  0  0  0
   -3.5130    0.1760   -4.2160 H   0  0  0  0  0  0  0  0  0  0  0  0
   -2.1510   -0.8250   -4.7770 H   0  0  0  0  0  0  0  0  0  0  0  0
   -5.2240   -1.5200   -8.1520 H   0  0  0  0  0  0  0  0  0  0  0  0
   -8.4040   -5.5450   -5.4000 H   0  0  0  0  0  0  0  0  0  0  0  0
   -6.8990   -6.4940   -5.4510 H   0  0  0  0  0  0  0  0  0  0  0  0
    0.5790   -1.9540    3.0960 H   0  0  0  0  0  0  0  0  0  0  0  0
   -8.9300   -6.9330   -7.2400 H   0  0  0  0  0  0  0  0  0  0  0  0
   -7.2210   -7.1330   -7.6970 H   0  0  0  0  0  0  0  0  0  0  0  0
    3.6460    1.7430    3.9400 H   0  0  0  0  0  0  0  0  0  0  0  0
   -7.8370   -5.5700   -9.3510 H   0  0  0  0  0  0  0  0  0  0  0  0
   -9.1080   -4.8470   -8.3370 H   0  0  0  0  0  0  0  0  0  0  0  0
    1.6500   -1.7440    5.3210 H   0  0  0  0  0  0  0  0  0  0  0  0
    3.2160    0.1470    5.7500 H   0  0  0  0  0  0  0  0  0  0  0  0
  1  3  1  0  0  0  0
  1  9  1  0  0  0  0
  1 10  1  0  0  0  0
  2  4  1  0  0  0  0
  2 11  1  0  0  0  0
  2 12  1  0  0  0  0
  3 16  2  0  0  0  0
  3 17  1  0  0  0  0
  4  8  2  0  0  0  0
  4 23  1  0  0  0  0
  5  7  1  0  0  0  0
  5 18  2  0  0  0  0
  5 20  1  0  0  0  0
  6 14  2  0  0  0  0
  6 15  1  0  0  0  0
  6 22  1  0  0  0  0
  7 13  1  0  0  0  0
  7 29  1  0  0  0  0
  8 25  1  0  0  0  0
  9 11  1  0  0  0  0
  9 30  1  0  0  0  0
  9 31  1  0  0  0  0
 10 12  1  0  0  0  0
 10 32  1  0  0  0  0
 10 33  1  0  0  0  0
 11 34  1  0  0  0  0
 11 35  1  0  0  0  0
 12 36  1  0  0  0  0
 12 37  1  0  0  0  0
 13 14  1  0  0  0  0
 13 21  2  0  0  0  0
 14 38  1  0  0  0  0
 15 19  2  0  0  0  0
 15 26  1  0  0  0  0
 17 20  1  0  0  0  0
 17 39  1  0  0  0  0
 17 40  1  0  0  0  0
 19 21  1  0  0  0  0
 19 41  1  0  0  0  0
 20 42  1  0  0  0  0
 20 43  1  0  0  0  0
 21 44  1  0  0  0  0
 22 24  1  0  0  0  0
 22 45  1  0  0  0  0
 22 46  1  0  0  0  0
 23 27  2  0  0  0  0
 23 47  1  0  0  0  0
 24 26  1  0  0  0  0
 24 48  1  0  0  0  0
 24 49  1  0  0  0  0
 25 28  2  0  0  0  0
 25 50  1  0  0  0  0
 26 51  1  0  0  0  0
 26 52  1  0  0  0  0
 27 28  1  0  0  0  0
 27 53  1  0  0  0  0
 28 54  1  0  0  0  0
M  END
>  <$CLUSTER>
986

>  <INDEX>
189598

$$$$
Asinex BAS 02903336
 OpenBabel04062209303D

 47 50  0  0  0  0  0  0  0  0999 V2000
    0.2610   -2.1340    0.3860 S   0  0  0  0  0  0  0  0  0  0  0  0
    0.2590   -0.5190    0.9820 N   0  0  0  0  0  0  0  0  0  0  0  0
   -0.3480   -0.2630    2.3230 C   0  0  0  0  0  0  0  0  0  0  0  0
    0.4180    0.8290    3.0540 C   0  0  0  0  0  0  0  0  0  0  0  0
    3.1910    3.0310    5.7780 C   0  0  0  0  0  0  0  0  0  0  0  0
    0.7270   -3.0220    1.4350 O   0  0  0  0  0  0  0  0  0  0  0  0
    0.8640   -2.1850   -0.9330 O   0  0  0  0  0  0  0  0  0  0  0  0
   -1.4840   -2.4370    0.1900 C   0  0  0  0  0  0  0  0  0  0  0  0
    0.1640    0.5270   -0.0120 C   0  0  0  0  0  0  0  0  0  0  0  0
    2.2970    2.4200    4.8940 C   0  0  0  0  0  0  0  0  0  0  0  0
    1.3100    0.3760    3.9800 N   0  0  0  0  0  0  0  0  0  0  0  0
    3.9880    2.2590    6.6210 C   0  0  0  0  0  0  0  0  0  0  0  0
    3.4040    4.3480    5.9370 O   0  0  0  0  0  0  0  0  0  0  0  0
    4.7820    3.0030    7.3960 O   0  0  0  0  0  0  0  0  0  0  0  0
    2.1910    1.0260    4.8480 C   0  0  0  0  0  0  0  0  0  0  0  0
    4.4180    4.3350    6.9690 C   0  0  0  0  0  0  0  0  0  0  0  0
    0.2610    2.0340    2.8430 O   0  0  0  0  0  0  0  0  0  0  0  0
    3.8910    0.8720    6.5820 C   0  0  0  0  0  0  0  0  0  0  0  0
    1.3310    0.9320   -0.6700 C   0  0  0  0  0  0  0  0  0  0  0  0
   -1.0670    1.0810   -0.3800 C   0  0  0  0  0  0  0  0  0  0  0  0
    2.9980    0.2590    5.7010 C   0  0  0  0  0  0  0  0  0  0  0  0
    0.0450    2.4710   -2.0170 C   0  0  0  0  0  0  0  0  0  0  0  0
    1.2710    1.9070   -1.6650 C   0  0  0  0  0  0  0  0  0  0  0  0
   -1.1220    2.0560   -1.3770 C   0  0  0  0  0  0  0  0  0  0  0  0
   -0.0110    3.6650   -3.2300 Cl  0  0  0  0  0  0  0  0  0  0  0  0
   -2.2340   -2.9620    1.2520 C   0  0  0  0  0  0  0  0  0  0  0  0
   -2.1020   -2.1930   -1.0470 C   0  0  0  0  0  0  0  0  0  0  0  0
   -3.4620   -2.4580   -1.2100 C   0  0  0  0  0  0  0  0  0  0  0  0
   -3.5940   -3.2260    1.0810 C   0  0  0  0  0  0  0  0  0  0  0  0
   -4.2060   -2.9740   -0.1480 C   0  0  0  0  0  0  0  0  0  0  0  0
   -0.3160   -1.1800    2.9120 H   0  0  0  0  0  0  0  0  0  0  0  0
   -1.3840    0.0500    2.1940 H   0  0  0  0  0  0  0  0  0  0  0  0
    1.6850    3.0270    4.2430 H   0  0  0  0  0  0  0  0  0  0  0  0
    1.3400   -0.6310    4.0530 H   0  0  0  0  0  0  0  0  0  0  0  0
    4.0410    4.8840    7.8320 H   0  0  0  0  0  0  0  0  0  0  0  0
    5.3090    4.8310    6.5850 H   0  0  0  0  0  0  0  0  0  0  0  0
    4.5070    0.2690    7.2330 H   0  0  0  0  0  0  0  0  0  0  0  0
    2.2800    0.4880   -0.4070 H   0  0  0  0  0  0  0  0  0  0  0  0
   -1.9740    0.7540    0.1070 H   0  0  0  0  0  0  0  0  0  0  0  0
    2.9280   -0.8180    5.6760 H   0  0  0  0  0  0  0  0  0  0  0  0
    2.1750    2.2260   -2.1630 H   0  0  0  0  0  0  0  0  0  0  0  0
   -2.0710    2.4900   -1.6540 H   0  0  0  0  0  0  0  0  0  0  0  0
   -1.7600   -3.1620    2.2020 H   0  0  0  0  0  0  0  0  0  0  0  0
   -1.5250   -1.8010   -1.8710 H   0  0  0  0  0  0  0  0  0  0  0  0
   -3.9400   -2.2640   -2.1590 H   0  0  0  0  0  0  0  0  0  0  0  0
   -4.1730   -3.6260    1.9000 H   0  0  0  0  0  0  0  0  0  0  0  0
   -5.2580   -3.1790   -0.2770 H   0  0  0  0  0  0  0  0  0  0  0  0
  1  2  1  0  0  0  0
  1  6  2  0  0  0  0
  1  7  2  0  0  0  0
  1  8  1  0  0  0  0
  2  3  1  0  0  0  0
  2  9  1  0  0  0  0
  3  4  1  0  0  0  0
  3 31  1  0  0  0  0
  3 32  1  0  0  0  0
  4 11  1  0  0  0  0
  4 17  2  0  0  0  0
  5 10  2  0  0  0  0
  5 12  1  0  0  0  0
  5 13  1  0  0  0  0
  8 26  1  0  0  0  0
  8 27  2  0  0  0  0
  9 19  2  0  0  0  0
  9 20  1  0  0  0  0
 10 15  1  0  0  0  0
 10 33  1  0  0  0  0
 11 15  1  0  0  0  0
 11 34  1  0  0  0  0
 12 14  1  0  0  0  0
 12 18  2  0  0  0  0
 13 16  1  0  0  0  0
 14 16  1  0  0  0  0
 15 21  2  0  0  0  0
 16 35  1  0  0  0  0
 16 36  1  0  0  0  0
 18 21  1  0  0  0  0
 18 37  1  0  0  0  0
 19 23  1  0  0  0  0
 19 38  1  0  0  0  0
 20 24  2  0  0  0  0
 20 39  1  0  0  0  0
 21 40  1  0  0  0  0
 22 23  2  0  0  0  0
 22 24  1  0  0  0  0
 22 25  1  0  0  0  0
 23 41  1  0  0  0  0
 24 42  1  0  0  0  0
 26 29  2  0  0  0  0
 26 43  1  0  0  0  0
 27 28  1  0  0  0  0
 27 44  1  0  0  0  0
 28 30  2  0  0  0  0
 28 45  1  0  0  0  0
 29 30  1  0  0  0  0
 29 46  1  0  0  0  0
 30 47  1  0  0  0  0
M  END
>  <$CLUSTER>
94

>  <INDEX>
178545

$$$$
Life Chemicals F0417-0114
 OpenBabel04062209303D

 42 44  0  0  0  0  0  0  0  0999 V2000
   -0.2220   -0.4340   -0.3220 C   0  0  0  0  0  0  0  0  0  0  0  0
    1.4300   -0.4350   -0.7590 S   0  0  0  0  0  0  0  0  0  0  0  0
   -0.8590    0.6840    0.1840 N   0  0  0  0  0  0  0  0  0  0  0  0
    1.2360   -2.0770   -1.2030 C   0  0  0  0  0  0  0  0  0  0  0  0
   -0.8270   -1.5900   -0.5100 N   0  0  0  0  0  0  0  0  0  0  0  0
    0.0230   -2.5510   -1.0250 N   0  0  0  0  0  0  0  0  0  0  0  0
   -0.2920    1.9310    0.4100 C   0  0  0  0  0  0  0  0  0  0  0  0
    0.7550   -4.5920   -3.2660 C   0  0  0  0  0  0  0  0  0  0  0  0
   -1.3120    2.8930    0.9700 C   0  0  0  0  0  0  0  0  0  0  0  0
    2.5570   -3.0380   -1.8420 S   0  0  0  0  0  0  0  0  0  0  0  0
   -0.5270   -4.3690   -2.8920 N   0  0  0  0  0  0  0  0  0  0  0  0
    0.8640    2.2920    0.2130 O   0  0  0  0  0  0  0  0  0  0  0  0
    1.1000   -4.6760   -4.4400 O   0  0  0  0  0  0  0  0  0  0  0  0
   -1.0450    4.2820    0.7530 C   0  0  0  0  0  0  0  0  0  0  0  0
   -2.4110    2.5310    1.7110 C   0  0  0  0  0  0  0  0  0  0  0  0
    1.7500   -4.6310   -2.1090 C   0  0  0  0  0  0  0  0  0  0  0  0
   -1.7170   -4.2570   -3.6250 C   0  0  0  0  0  0  0  0  0  0  0  0
   -3.0450    4.8500    1.9860 C   0  0  0  0  0  0  0  0  0  0  0  0
   -3.2870    3.4970    2.2140 C   0  0  0  0  0  0  0  0  0  0  0  0
   -1.9240    5.2430    1.2570 C   0  0  0  0  0  0  0  0  0  0  0  0
   -4.1260    6.0110    2.6020 Cl  0  0  0  0  0  0  0  0  0  0  0  0
   -4.1450   -4.0110   -5.0190 C   0  0  0  0  0  0  0  0  0  0  0  0
   -1.7430   -4.3350   -5.0210 C   0  0  0  0  0  0  0  0  0  0  0  0
   -2.9240   -4.0550   -2.9370 C   0  0  0  0  0  0  0  0  0  0  0  0
   -2.9530   -4.2110   -5.7130 C   0  0  0  0  0  0  0  0  0  0  0  0
   -4.1300   -3.9330   -3.6300 C   0  0  0  0  0  0  0  0  0  0  0  0
   -5.4330   -3.8800   -5.7620 C   0  0  0  0  0  0  0  0  0  0  0  0
   -1.8380    0.5830    0.4130 H   0  0  0  0  0  0  0  0  0  0  0  0
   -0.6490   -4.2630   -1.8950 H   0  0  0  0  0  0  0  0  0  0  0  0
   -0.1670    4.5860    0.2020 H   0  0  0  0  0  0  0  0  0  0  0  0
   -2.6000    1.4860    1.9070 H   0  0  0  0  0  0  0  0  0  0  0  0
    2.5130   -5.3780   -2.3280 H   0  0  0  0  0  0  0  0  0  0  0  0
    1.2190   -4.9110   -1.1990 H   0  0  0  0  0  0  0  0  0  0  0  0
   -4.1540    3.1940    2.7810 H   0  0  0  0  0  0  0  0  0  0  0  0
   -1.7350    6.2920    1.0820 H   0  0  0  0  0  0  0  0  0  0  0  0
   -0.8250   -4.4920   -5.5680 H   0  0  0  0  0  0  0  0  0  0  0  0
   -2.9200   -3.9930   -1.8590 H   0  0  0  0  0  0  0  0  0  0  0  0
   -2.9630   -4.2710   -6.7910 H   0  0  0  0  0  0  0  0  0  0  0  0
   -5.0510   -3.7780   -3.0880 H   0  0  0  0  0  0  0  0  0  0  0  0
   -5.2460   -3.9670   -6.8320 H   0  0  0  0  0  0  0  0  0  0  0  0
   -5.8780   -2.9080   -5.5490 H   0  0  0  0  0  0  0  0  0  0  0  0
   -6.1160   -4.6690   -5.4470 H   0  0  0  0  0  0  0  0  0  0  0  0
  1  2  1  0  0  0  0
  1  3  1  0  0  0  0
  1  5  2  0  0  0  0
  2  4  1  0  0  0  0
  3  7  1  0  0  0  0
  3 28  1  0  0  0  0
  4  6  2  0  0  0  0
  4 10  1  0  0  0  0
  5  6  1  0  0  0  0
  7  9  1  0  0  0  0
  7 12  2  0  0  0  0
  8 11  1  0  0  0  0
  8 13  2  0  0  0  0
  8 16  1  0  0  0  0
  9 14  1  0  0  0  0
  9 15  2  0  0  0  0
 10 16  1  0  0  0  0
 11 17  1  0  0  0  0
 11 29  1  0  0  0  0
 14 20  2  0  0  0  0
 14 30  1  0  0  0  0
 15 19  1  0  0  0  0
 15 31  1  0  0  0  0
 16 32  1  0  0  0  0
 16 33  1  0  0  0  0
 17 23  2  0  0  0  0
 17 24  1  0  0  0  0
 18 19  2  0  0  0  0
 18 20  1  0  0  0  0
 18 21  1  0  0  0  0
 19 34  1  0  0  0  0
 20 35  1  0  0  0  0
 22 25  2  0  0  0  0
 22 26  1  0  0  0  0
 22 27  1  0  0  0  0
 23 25  1  0  0  0  0
 23 36  1  0  0  0  0
 24 26  2  0  0  0  0
 24 37  1  0  0  0  0
 25 38  1  0  0  0  0
 26 39  1  0  0  0  0
 27 40  1  0  0  0  0
 27 41  1  0  0  0  0
 27 42  1  0  0  0  0
M  END
>  <$CLUSTER>
406

>  <INDEX>
270131

$$$$
Life Chemicals F1359-1195
 OpenBabel04062209303D

 43 45  0  0  0  0  0  0  0  0999 V2000
   -0.9940   -1.2820    0.0970 C   0  0  0  0  0  0  0  0  0  0  0  0
   -1.7080   -2.2560    0.5630 N   0  0  0  0  0  0  0  0  0  0  0  0
    2.2370    3.6390   -2.7620 S   0  0  0  0  0  0  0  0  0  0  0  0
   -0.0150   -0.5890    0.7950 N   0  0  0  0  0  0  0  0  0  0  0  0
   -1.1380   -0.6290   -1.5730 S   0  0  0  0  0  0  0  0  0  0  0  0
    0.1280    0.5670   -1.2450 C   0  0  0  0  0  0  0  0  0  0  0  0
    0.6060    0.4420    0.0580 C   0  0  0  0  0  0  0  0  0  0  0  0
   -2.7100   -2.8920   -0.3020 C   0  0  0  0  0  0  0  0  0  0  0  0
    1.6180    2.3880   -1.6870 C   0  0  0  0  0  0  0  0  0  0  0  0
    0.6160    1.5250   -2.1280 C   0  0  0  0  0  0  0  0  0  0  0  0
   -3.4300   -3.9670    0.3620 C   0  0  0  0  0  0  0  0  0  0  0  0
    1.6090    1.3130    0.4930 C   0  0  0  0  0  0  0  0  0  0  0  0
    1.2120    3.9390   -3.7480 O   0  0  0  0  0  0  0  0  0  0  0  0
    2.8120    4.7070   -1.9640 O   0  0  0  0  0  0  0  0  0  0  0  0
    3.4920    2.8690   -3.5590 N   0  0  0  0  0  0  0  0  0  0  0  0
   -2.8620   -2.5030   -1.4460 O   0  0  0  0  0  0  0  0  0  0  0  0
    2.1120    2.2830   -0.3820 C   0  0  0  0  0  0  0  0  0  0  0  0
   -3.9920   -4.9350   -0.5210 C   0  0  0  0  0  0  0  0  0  0  0  0
    0.3340   -0.8780    2.1810 C   0  0  0  0  0  0  0  0  0  0  0  0
   -4.7360   -5.9950    0.0020 C   0  0  0  0  0  0  0  0  0  0  0  0
   -5.3990   -7.1760   -1.0300 Cl  0  0  0  0  0  0  0  0  0  0  0  0
   -3.6610   -4.0650    1.7120 C   0  0  0  0  0  0  0  0  0  0  0  0
   -4.4070   -5.1260    2.2300 C   0  0  0  0  0  0  0  0  0  0  0  0
   -0.0760   -0.3080    4.4990 O   0  0  0  0  0  0  0  0  0  0  0  0
   -4.9420   -6.0900    1.3770 C   0  0  0  0  0  0  0  0  0  0  0  0
   -0.4590    0.0070    3.1310 C   0  0  0  0  0  0  0  0  0  0  0  0
   -0.7930    0.5010    5.4380 C   0  0  0  0  0  0  0  0  0  0  0  0
    0.2270    1.5980   -3.1330 H   0  0  0  0  0  0  0  0  0  0  0  0
    1.9940    1.2380    1.4990 H   0  0  0  0  0  0  0  0  0  0  0  0
    3.1220    2.1180   -4.1240 H   0  0  0  0  0  0  0  0  0  0  0  0
    4.1400    2.4920   -2.8820 H   0  0  0  0  0  0  0  0  0  0  0  0
    2.8880    2.9560   -0.0470 H   0  0  0  0  0  0  0  0  0  0  0  0
   -3.8430   -4.8490   -1.5870 H   0  0  0  0  0  0  0  0  0  0  0  0
    1.3990   -0.6960    2.3270 H   0  0  0  0  0  0  0  0  0  0  0  0
    0.1110   -1.9230    2.3960 H   0  0  0  0  0  0  0  0  0  0  0  0
   -3.2620   -3.3150    2.3790 H   0  0  0  0  0  0  0  0  0  0  0  0
   -4.5700   -5.2000    3.2950 H   0  0  0  0  0  0  0  0  0  0  0  0
   -5.5160   -6.9100    1.7820 H   0  0  0  0  0  0  0  0  0  0  0  0
   -1.5250   -0.1770    2.9980 H   0  0  0  0  0  0  0  0  0  0  0  0
   -0.2420    1.0550    2.9220 H   0  0  0  0  0  0  0  0  0  0  0  0
   -0.4850    0.2420    6.4510 H   0  0  0  0  0  0  0  0  0  0  0  0
   -1.8630    0.3240    5.3270 H   0  0  0  0  0  0  0  0  0  0  0  0
   -0.5770    1.5530    5.2500 H   0  0  0  0  0  0  0  0  0  0  0  0
  1  2  2  0  0  0  0
  1  4  1  0  0  0  0
  1  5  1  0  0  0  0
  2  8  1  0  0  0  0
  3  9  1  0  0  0  0
  3 13  2  0  0  0  0
  3 14  2  0  0  0  0
  3 15  1  0  0  0  0
  4  7  1  0  0  0  0
  4 19  1  0  0  0  0
  5  6  1  0  0  0  0
  6  7  1  0  0  0  0
  6 10  2  0  0  0  0
  7 12  2  0  0  0  0
  8 11  1  0  0  0  0
  8 16  2  0  0  0  0
  9 10  1  0  0  0  0
  9 17  2  0  0  0  0
 10 28  1  0  0  0  0
 11 18  2  0  0  0  0
 11 22  1  0  0  0  0
 12 17  1  0  0  0  0
 12 29  1  0  0  0  0
 15 30  1  0  0  0  0
 15 31  1  0  0  0  0
 17 32  1  0  0  0  0
 18 20  1  0  0  0  0
 18 33  1  0  0  0  0
 19 26  1  0  0  0  0
 19 34  1  0  0  0  0
 19 35  1  0  0  0  0
 20 21  1  0  0  0  0
 20 25  2  0  0  0  0
 22 23  2  0  0  0  0
 22 36  1  0  0  0  0
 23 25  1  0  0  0  0
 23 37  1  0  0  0  0
 24 26  1  0  0  0  0
 24 27  1  0  0  0  0
 25 38  1  0  0  0  0
 26 39  1  0  0  0  0
 26 40  1  0  0  0  0
 27 41  1  0  0  0  0
 27 42  1  0  0  0  0
 27 43  1  0  0  0  0
M  END
>  <$CLUSTER>
444

>  <INDEX>
292670

$$$$
Pyxis Discovery PYX 00003417
 OpenBabel04062209303D

 54 58  0  0  0  0  0  0  0  0999 V2000
   -0.4240    1.7770    0.1550 C   0  0  0  0  0  0  0  0  0  0  0  0
    0.8880    1.5850   -0.1950 C   0  0  0  0  0  0  0  0  0  0  0  0
   -0.9910    0.5240    0.2770 N   0  0  0  0  0  0  0  0  0  0  0  0
   -0.9830    3.0160    0.3790 N   0  0  0  0  0  0  0  0  0  0  0  0
   -0.0320   -0.4410    0.1560 N   0  0  0  0  0  0  0  0  0  0  0  0
    1.0980    0.1930   -0.1990 C   0  0  0  0  0  0  0  0  0  0  0  0
    1.7120    2.7200   -0.4030 C   0  0  0  0  0  0  0  0  0  0  0  0
    1.2180    3.9560   -0.2400 C   0  0  0  0  0  0  0  0  0  0  0  0
   -0.2040    4.1560    0.1810 C   0  0  0  0  0  0  0  0  0  0  0  0
    2.3130   -0.5610   -0.4890 C   0  0  0  0  0  0  0  0  0  0  0  0
   -2.3430    0.1360    0.4890 C   0  0  0  0  0  0  0  0  0  0  0  0
   -0.6330    5.2950    0.3450 O   0  0  0  0  0  0  0  0  0  0  0  0
    2.6860   -1.6410    0.3240 C   0  0  0  0  0  0  0  0  0  0  0  0
    3.1130   -0.2320   -1.5920 C   0  0  0  0  0  0  0  0  0  0  0  0
    1.6910    6.0240   -1.5920 N   0  3  0  0  0  0  0  0  0  0  0  0
    2.0890    5.1960   -0.4230 C   0  0  0  0  0  0  0  0  0  0  0  0
    4.6370   -2.0310   -1.0500 C   0  0  0  0  0  0  0  0  0  0  0  0
    4.2710   -0.9640   -1.8680 C   0  0  0  0  0  0  0  0  0  0  0  0
    3.8450   -2.3700    0.0450 C   0  0  0  0  0  0  0  0  0  0  0  0
    5.7560   -2.6760   -1.3790 F   0  0  0  0  0  0  0  0  0  0  0  0
    1.9450    7.9450   -3.0450 C   0  0  0  0  0  0  0  0  0  0  0  0
    2.4840    7.2280   -1.8250 C   0  0  0  0  0  0  0  0  0  0  0  0
   -3.4100    0.9970    0.2070 C   0  0  0  0  0  0  0  0  0  0  0  0
   -2.6170   -1.1610    0.9530 C   0  0  0  0  0  0  0  0  0  0  0  0
    2.4610    7.6770   -4.3270 C   0  0  0  0  0  0  0  0  0  0  0  0
    0.9540    8.9370   -2.9210 C   0  0  0  0  0  0  0  0  0  0  0  0
   -4.7270    0.5770    0.4200 C   0  0  0  0  0  0  0  0  0  0  0  0
   -3.9350   -1.5720    1.1660 C   0  0  0  0  0  0  0  0  0  0  0  0
    1.9730    8.3490   -5.4500 C   0  0  0  0  0  0  0  0  0  0  0  0
    0.4680    9.6070   -4.0450 C   0  0  0  0  0  0  0  0  0  0  0  0
   -4.9900   -0.7020    0.9040 C   0  0  0  0  0  0  0  0  0  0  0  0
    0.9780    9.3140   -5.3080 C   0  0  0  0  0  0  0  0  0  0  0  0
   -1.9430    3.0980    0.6820 H   0  0  0  0  0  0  0  0  0  0  0  0
    2.7440    2.5880   -0.6940 H   0  0  0  0  0  0  0  0  0  0  0  0
    2.0730   -1.9110    1.1710 H   0  0  0  0  0  0  0  0  0  0  0  0
    2.8330    0.5920   -2.2320 H   0  0  0  0  0  0  0  0  0  0  0  0
    0.7310    6.3080   -1.4570 H   0  0  0  0  0  0  0  0  0  0  0  0
    1.7580    5.4460   -2.4170 H   0  0  0  0  0  0  0  0  0  0  0  0
    3.1220    4.8770   -0.5600 H   0  0  0  0  0  0  0  0  0  0  0  0
    2.0140    5.8080    0.4760 H   0  0  0  0  0  0  0  0  0  0  0  0
    4.8840   -0.7020   -2.7180 H   0  0  0  0  0  0  0  0  0  0  0  0
    4.1270   -3.1970    0.6790 H   0  0  0  0  0  0  0  0  0  0  0  0
    3.5250    6.9530   -1.9930 H   0  0  0  0  0  0  0  0  0  0  0  0
    2.4170    7.8830   -0.9570 H   0  0  0  0  0  0  0  0  0  0  0  0
   -3.2160    1.9880   -0.1760 H   0  0  0  0  0  0  0  0  0  0  0  0
   -1.8040   -1.8450    1.1460 H   0  0  0  0  0  0  0  0  0  0  0  0
    3.2440    6.9420   -4.4440 H   0  0  0  0  0  0  0  0  0  0  0  0
    0.5650    9.1830   -1.9440 H   0  0  0  0  0  0  0  0  0  0  0  0
   -5.5450    1.2490    0.2080 H   0  0  0  0  0  0  0  0  0  0  0  0
   -4.1360   -2.5670    1.5350 H   0  0  0  0  0  0  0  0  0  0  0  0
    2.3670    8.1200   -6.4290 H   0  0  0  0  0  0  0  0  0  0  0  0
   -0.3050   10.3540   -3.9350 H   0  0  0  0  0  0  0  0  0  0  0  0
   -6.0080   -1.0180    1.0750 H   0  0  0  0  0  0  0  0  0  0  0  0
    0.6020    9.8350   -6.1760 H   0  0  0  0  0  0  0  0  0  0  0  0
  1  2  2  0  0  0  0
  1  3  1  0  0  0  0
  1  4  1  0  0  0  0
  2  6  1  0  0  0  0
  2  7  1  0  0  0  0
  3  5  1  0  0  0  0
  3 11  1  0  0  0  0
  4  9  1  0  0  0  0
  4 33  1  0  0  0  0
  5  6  2  0  0  0  0
  6 10  1  0  0  0  0
  7  8  2  0  0  0  0
  7 34  1  0  0  0  0
  8  9  1  0  0  0  0
  8 16  1  0  0  0  0
  9 12  2  0  0  0  0
 10 13  1  0  0  0  0
 10 14  2  0  0  0  0
 11 23  2  0  0  0  0
 11 24  1  0  0  0  0
 13 19  2  0  0  0  0
 13 35  1  0  0  0  0
 14 18  1  0  0  0  0
 14 36  1  0  0  0  0
 15 16  1  0  0  0  0
 15 22  1  0  0  0  0
 15 37  1  0  0  0  0
 15 38  1  0  0  0  0
 16 39  1  0  0  0  0
 16 40  1  0  0  0  0
 17 18  2  0  0  0  0
 17 19  1  0  0  0  0
 17 20  1  0  0  0  0
 18 41  1  0  0  0  0
 19 42  1  0  0  0  0
 21 22  1  0  0  0  0
 21 25  2  0  0  0  0
 21 26  1  0  0  0  0
 22 43  1  0  0  0  0
 22 44  1  0  0  0  0
 23 27  1  0  0  0  0
 23 45  1  0  0  0  0
 24 28  2  0  0  0  0
 24 46  1  0  0  0  0
 25 29  1  0  0  0  0
 25 47  1  0  0  0  0
 26 30  2  0  0  0  0
 26 48  1  0  0  0  0
 27 31  2  0  0  0  0
 27 49  1  0  0  0  0
 28 31  1  0  0  0  0
 28 50  1  0  0  0  0
 29 32  2  0  0  0  0
 29 51  1  0  0  0  0
 30 32  1  0  0  0  0
 30 52  1  0  0  0  0
 31 53  1  0  0  0  0
 32 54  1  0  0  0  0
M  CHG  1  15   1
M  END
>  <$CLUSTER>
274

>  <INDEX>
614360

$$$$
Asinex ASN 09961559
 OpenBabel04062209303D

 52 55  0  0  0  0  0  0  0  0999 V2000
   -0.5080   -0.9980   -0.0200 N   0  0  0  0  0  0  0  0  0  0  0  0
    4.1770    5.0520   -0.3960 C   0  0  0  0  0  0  0  0  0  0  0  0
    3.6430    3.8580   -0.5210 N   0  0  0  0  0  0  0  0  0  0  0  0
   -1.8530   -1.3230    0.0770 C   0  0  0  0  0  0  0  0  0  0  0  0
    5.4510    5.3470   -0.8720 N   0  0  0  0  0  0  0  0  0  0  0  0
    0.0400    0.2990    0.0160 C   0  0  0  0  0  0  0  0  0  0  0  0
    2.3750    3.8590    0.0390 C   0  0  0  0  0  0  0  0  0  0  0  0
    6.1100    6.5660   -0.7930 C   0  0  0  0  0  0  0  0  0  0  0  0
    3.2190    6.2340    0.3920 S   0  0  0  0  0  0  0  0  0  0  0  0
    1.4250    0.2390   -0.1100 C   0  0  0  0  0  0  0  0  0  0  0  0
    1.9780    5.0630    0.5900 C   0  0  0  0  0  0  0  0  0  0  0  0
    0.6030   -1.9620   -0.1800 C   0  0  0  0  0  0  0  0  0  0  0  0
    1.5570    2.6270    0.0340 C   0  0  0  0  0  0  0  0  0  0  0  0
    2.2010    1.3950   -0.1030 C   0  0  0  0  0  0  0  0  0  0  0  0
   -0.6050    1.5160    0.1520 C   0  0  0  0  0  0  0  0  0  0  0  0
   -2.7690   -0.5130    0.2100 O   0  0  0  0  0  0  0  0  0  0  0  0
    1.9100   -1.1660   -0.2440 C   0  0  0  0  0  0  0  0  0  0  0  0
    5.7170    7.6170   -0.2960 O   0  0  0  0  0  0  0  0  0  0  0  0
    0.1630    2.6870    0.1600 C   0  0  0  0  0  0  0  0  0  0  0  0
    7.4760    6.4810   -1.4280 C   0  0  0  0  0  0  0  0  0  0  0  0
   -2.1640   -2.8020    0.0080 C   0  0  0  0  0  0  0  0  0  0  0  0
    8.4490    5.6490   -0.5690 C   0  0  0  0  0  0  0  0  0  0  0  0
    8.0940    7.8690   -1.6830 C   0  0  0  0  0  0  0  0  0  0  0  0
   -1.9100   -3.3310   -1.4180 C   0  0  0  0  0  0  0  0  0  0  0  0
   -3.5580   -3.1500    0.4660 C   0  0  0  0  0  0  0  0  0  0  0  0
    9.8120    6.1170   -1.1870 C   0  0  0  0  0  0  0  0  0  0  0  0
    9.5910    7.4680   -1.8630 C   0  0  0  0  0  0  0  0  0  0  0  0
    5.9490    4.5930   -1.3230 H   0  0  0  0  0  0  0  0  0  0  0  0
    1.0290    5.2410    1.0730 H   0  0  0  0  0  0  0  0  0  0  0  0
    0.4700   -2.5310   -1.1000 H   0  0  0  0  0  0  0  0  0  0  0  0
    0.6260   -2.6450    0.6690 H   0  0  0  0  0  0  0  0  0  0  0  0
    3.2750    1.3400   -0.2010 H   0  0  0  0  0  0  0  0  0  0  0  0
   -1.6800    1.5620    0.2500 H   0  0  0  0  0  0  0  0  0  0  0  0
    2.5780   -1.4340    0.5750 H   0  0  0  0  0  0  0  0  0  0  0  0
    2.4210   -1.3200   -1.1940 H   0  0  0  0  0  0  0  0  0  0  0  0
   -0.3240    3.6450    0.2640 H   0  0  0  0  0  0  0  0  0  0  0  0
    7.3260    5.9870   -2.3880 H   0  0  0  0  0  0  0  0  0  0  0  0
   -1.4890   -3.2940    0.7090 H   0  0  0  0  0  0  0  0  0  0  0  0
    8.2910    4.5780   -0.6980 H   0  0  0  0  0  0  0  0  0  0  0  0
    8.3750    5.9020    0.4890 H   0  0  0  0  0  0  0  0  0  0  0  0
    7.9530    8.5370   -0.8330 H   0  0  0  0  0  0  0  0  0  0  0  0
    7.6890    8.3340   -2.5820 H   0  0  0  0  0  0  0  0  0  0  0  0
   -2.5870   -2.8370   -2.1150 H   0  0  0  0  0  0  0  0  0  0  0  0
   -2.0850   -4.4070   -1.4430 H   0  0  0  0  0  0  0  0  0  0  0  0
   -0.8790   -3.1240   -1.7040 H   0  0  0  0  0  0  0  0  0  0  0  0
   -4.2860   -2.6850   -0.1990 H   0  0  0  0  0  0  0  0  0  0  0  0
   -3.7080   -2.7850    1.4820 H   0  0  0  0  0  0  0  0  0  0  0  0
   -3.6870   -4.2320    0.4460 H   0  0  0  0  0  0  0  0  0  0  0  0
   10.1530    5.3880   -1.9220 H   0  0  0  0  0  0  0  0  0  0  0  0
   10.5590    6.2160   -0.4000 H   0  0  0  0  0  0  0  0  0  0  0  0
   10.2320    8.2200   -1.4020 H   0  0  0  0  0  0  0  0  0  0  0  0
    9.8270    7.3920   -2.9240 H   0  0  0  0  0  0  0  0  0  0  0  0
  1  4  1  0  0  0  0
  1  6  1  0  0  0  0
  1 12  1  0  0  0  0
  2  3  2  0  0  0  0
  2  5  1  0  0  0  0
  2  9  1  0  0  0  0
  3  7  1  0  0  0  0
  4 16  2  0  0  0  0
  4 21  1  0  0  0  0
  5  8  1  0  0  0  0
  5 28  1  0  0  0  0
  6 10  1  0  0  0  0
  6 15  2  0  0  0  0
  7 11  2  0  0  0  0
  7 13  1  0  0  0  0
  8 18  2  0  0  0  0
  8 20  1  0  0  0  0
  9 11  1  0  0  0  0
 10 14  2  0  0  0  0
 10 17  1  0  0  0  0
 11 29  1  0  0  0  0
 12 17  1  0  0  0  0
 12 30  1  0  0  0  0
 12 31  1  0  0  0  0
 13 14  1  0  0  0  0
 13 19  2  0  0  0  0
 14 32  1  0  0  0  0
 15 19  1  0  0  0  0
 15 33  1  0  0  0  0
 17 34  1  0  0  0  0
 17 35  1  0  0  0  0
 19 36  1  0  0  0  0
 20 22  1  0  0  0  0
 20 23  1  0  0  0  0
 20 37  1  0  0  0  0
 21 24  1  0  0  0  0
 21 25  1  0  0  0  0
 21 38  1  0  0  0  0
 22 26  1  0  0  0  0
 22 39  1  0  0  0  0
 22 40  1  0  0  0  0
 23 27  1  0  0  0  0
 23 41  1  0  0  0  0
 23 42  1  0  0  0  0
 24 43  1  0  0  0  0
 24 44  1  0  0  0  0
 24 45  1  0  0  0  0
 25 46  1  0  0  0  0
 25 47  1  0  0  0  0
 25 48  1  0  0  0  0
 26 27  1  0  0  0  0
 26 49  1  0  0  0  0
 26 50  1  0  0  0  0
 27 51  1  0  0  0  0
 27 52  1  0  0  0  0
M  END
>  <$CLUSTER>
939

>  <INDEX>
171136

$$$$
Pyxis Discovery PYX 00004219
 OpenBabel04062209303D

 52 55  0  0  1  0  0  0  0  0999 V2000
    2.0480    1.0200   -2.2950 N   0  0  0  0  0  0  0  0  0  0  0  0
    2.0940    0.1380   -1.3410 C   0  0  0  0  0  0  0  0  0  0  0  0
    3.2970    0.8770   -2.8250 C   0  0  0  0  0  0  0  0  0  0  0  0
   -0.4340    0.6700    1.4780 N   0  0  0  0  0  0  0  0  0  0  0  0
    4.0750   -0.0360   -2.2380 N   0  0  0  0  0  0  0  0  0  0  0  0
   -0.2500    0.8050    2.8250 C   0  0  0  0  0  0  0  0  0  0  0  0
    3.2520   -0.5390   -1.2250 O   0  0  0  0  0  0  0  0  0  0  0  0
    1.0020   -0.2230   -0.3360 C   0  0  1  0  0  0  0  0  0  0  0  0
    0.6330    0.9910    0.5280 C   0  0  0  0  0  0  0  0  0  0  0  0
   -1.4190    0.4440    3.7060 C   0  0  0  0  0  0  0  0  0  0  0  0
    3.7290    1.6970   -3.9750 C   0  0  0  0  0  0  0  0  0  0  0  0
    2.8550    2.6380   -4.5400 C   0  0  0  0  0  0  0  0  0  0  0  0
    3.2560    3.4180   -5.6280 C   0  0  0  0  0  0  0  0  0  0  0  0
    0.7980    1.1960    3.3450 O   0  0  0  0  0  0  0  0  0  0  0  0
    4.5330    3.2680   -6.1640 C   0  0  0  0  0  0  0  0  0  0  0  0
   -2.3850   -0.4640    3.2930 C   0  0  0  0  0  0  0  0  0  0  0  0
    5.0120    1.5560   -4.5250 C   0  0  0  0  0  0  0  0  0  0  0  0
    5.4100    2.3380   -5.6130 C   0  0  0  0  0  0  0  0  0  0  0  0
   -1.6430    0.2130    0.7930 C   0  0  0  0  0  0  0  0  0  0  0  0
   -3.4500   -0.7700    4.1440 C   0  0  0  0  0  0  0  0  0  0  0  0
    2.4500    4.3630   -6.2340 O   0  0  0  0  0  0  0  0  0  0  0  0
   -4.4210   -1.6280    3.8250 F   0  0  0  0  0  0  0  0  0  0  0  0
   -0.2390   -0.7680   -1.0550 C   0  0  0  0  0  0  0  0  0  0  0  0
    4.8380    4.0790   -7.2340 O   0  0  0  0  0  0  0  0  0  0  0  0
   -1.4940    1.0400    4.9640 C   0  0  0  0  0  0  0  0  0  0  0  0
   -1.3670   -1.0230   -0.0600 C   0  0  0  0  0  0  0  0  0  0  0  0
   -2.5600    0.7310    5.8110 C   0  0  0  0  0  0  0  0  0  0  0  0
   -3.5390   -0.1720    5.4000 C   0  0  0  0  0  0  0  0  0  0  0  0
    1.1380    4.5450   -5.7130 C   0  0  0  0  0  0  0  0  0  0  0  0
    6.1350    3.9500   -7.8050 C   0  0  0  0  0  0  0  0  0  0  0  0
    1.3900   -1.0030    0.3190 H   0  0  0  0  0  0  0  0  0  0  0  0
    1.5150    1.3130    1.0820 H   0  0  0  0  0  0  0  0  0  0  0  0
    0.2970    1.7990   -0.1220 H   0  0  0  0  0  0  0  0  0  0  0  0
    1.8630    2.7610   -4.1300 H   0  0  0  0  0  0  0  0  0  0  0  0
   -2.3140   -0.9300    2.3210 H   0  0  0  0  0  0  0  0  0  0  0  0
    5.6990    0.8370   -4.1040 H   0  0  0  0  0  0  0  0  0  0  0  0
    6.4000    2.2200   -6.0270 H   0  0  0  0  0  0  0  0  0  0  0  0
   -2.0100    1.0130    0.1500 H   0  0  0  0  0  0  0  0  0  0  0  0
   -2.4010   -0.0320    1.5370 H   0  0  0  0  0  0  0  0  0  0  0  0
    0.0170   -1.7030   -1.5530 H   0  0  0  0  0  0  0  0  0  0  0  0
   -0.5720   -0.0410   -1.7960 H   0  0  0  0  0  0  0  0  0  0  0  0
   -0.7320    1.7370    5.2810 H   0  0  0  0  0  0  0  0  0  0  0  0
   -2.2720   -1.2860   -0.6080 H   0  0  0  0  0  0  0  0  0  0  0  0
   -1.0850   -1.8490    0.5930 H   0  0  0  0  0  0  0  0  0  0  0  0
   -2.6260    1.1920    6.7850 H   0  0  0  0  0  0  0  0  0  0  0  0
   -4.3660   -0.4080    6.0540 H   0  0  0  0  0  0  0  0  0  0  0  0
    0.6230    5.3160   -6.2860 H   0  0  0  0  0  0  0  0  0  0  0  0
    1.2010    4.8500   -4.6680 H   0  0  0  0  0  0  0  0  0  0  0  0
    0.5850    3.6080   -5.7850 H   0  0  0  0  0  0  0  0  0  0  0  0
    6.2370    4.6470   -8.6370 H   0  0  0  0  0  0  0  0  0  0  0  0
    6.2730    2.9310   -8.1660 H   0  0  0  0  0  0  0  0  0  0  0  0
    6.8880    4.1730   -7.0500 H   0  0  0  0  0  0  0  0  0  0  0  0
  1  2  2  0  0  0  0
  1  3  1  0  0  0  0
  2  7  1  0  0  0  0
  2  8  1  0  0  0  0
  3  5  2  0  0  0  0
  3 11  1  0  0  0  0
  4  6  1  0  0  0  0
  4  9  1  0  0  0  0
  4 19  1  0  0  0  0
  5  7  1  0  0  0  0
  6 10  1  0  0  0  0
  6 14  2  0  0  0  0
  8  9  1  0  0  0  0
  8 23  1  0  0  0  0
  8 31  1  1  0  0  0
  9 32  1  0  0  0  0
  9 33  1  0  0  0  0
 10 16  2  0  0  0  0
 10 25  1  0  0  0  0
 11 12  1  0  0  0  0
 11 17  2  0  0  0  0
 12 13  2  0  0  0  0
 12 34  1  0  0  0  0
 13 15  1  0  0  0  0
 13 21  1  0  0  0  0
 15 18  2  0  0  0  0
 15 24  1  0  0  0  0
 16 20  1  0  0  0  0
 16 35  1  0  0  0  0
 17 18  1  0  0  0  0
 17 36  1  0  0  0  0
 18 37  1  0  0  0  0
 19 26  1  0  0  0  0
 19 38  1  0  0  0  0
 19 39  1  0  0  0  0
 20 22  1  0  0  0  0
 20 28  2  0  0  0  0
 21 29  1  0  0  0  0
 23 26  1  0  0  0  0
 23 40  1  0  0  0  0
 23 41  1  0  0  0  0
 24 30  1  0  0  0  0
 25 27  2  0  0  0  0
 25 42  1  0  0  0  0
 26 43  1  0  0  0  0
 26 44  1  0  0  0  0
 27 28  1  0  0  0  0
 27 45  1  0  0  0  0
 28 46  1  0  0  0  0
 29 47  1  0  0  0  0
 29 48  1  0  0  0  0
 29 49  1  0  0  0  0
 30 50  1  0  0  0  0
 30 51  1  0  0  0  0
 30 52  1  0  0  0  0
M  END
>  <$CLUSTER>
938

>  <INDEX>
615056

$$$$
Asinex ASN 03271999
 OpenBabel04062209303D

 43 45  0  0  1  0  0  0  0  0999 V2000
    0.1230   -0.1120    0.0080 C   0  0  0  0  0  0  0  0  0  0  0  0
   -0.5280   -0.9310   -1.0500 C   0  0  1  0  0  0  0  0  0  0  0  0
    1.5160    0.5210    1.4830 N   0  0  0  0  0  0  0  0  0  0  0  0
    1.2760   -0.4810    0.6000 N   0  0  0  0  0  0  0  0  0  0  0  0
    0.5250    1.4420    1.4010 N   0  0  0  0  0  0  0  0  0  0  0  0
   -1.9110   -1.4170   -0.6130 C   0  0  0  0  0  0  0  0  0  0  0  0
   -6.6870   -3.3300    1.2020 C   0  0  0  0  0  0  0  0  0  0  0  0
   -0.3760    1.0550    0.4630 N   0  5  0  0  0  0  0  0  0  0  0  0
   -1.8690   -2.3730    0.3740 N   0  0  0  0  0  0  0  0  0  0  0  0
   -5.2270   -3.5530    1.4700 C   0  0  0  0  0  0  0  0  0  0  0  0
   -0.6100   -0.1730   -2.3760 C   0  0  0  0  0  0  0  0  0  0  0  0
   -2.9590   -0.9720   -1.0760 O   0  0  0  0  0  0  0  0  0  0  0  0
   -2.8920   -3.0600    1.0370 C   0  0  0  0  0  0  0  0  0  0  0  0
   -4.2460   -2.8380    0.7730 C   0  0  0  0  0  0  0  0  0  0  0  0
    0.7210    0.2040   -2.9890 C   0  0  0  0  0  0  0  0  0  0  0  0
   -7.3300   -2.9300    2.3330 F   0  0  0  0  0  0  0  0  0  0  0  0
   -7.2860   -4.4840    0.7990 F   0  0  0  0  0  0  0  0  0  0  0  0
   -6.9660   -2.3980    0.2480 F   0  0  0  0  0  0  0  0  0  0  0  0
    1.3820   -0.6970   -3.8220 C   0  0  0  0  0  0  0  0  0  0  0  0
    2.6360   -0.3730   -4.3420 C   0  0  0  0  0  0  0  0  0  0  0  0
    3.1740   -1.3310   -5.1770 O   0  0  0  0  0  0  0  0  0  0  0  0
   -4.8650   -4.4930    2.4320 C   0  0  0  0  0  0  0  0  0  0  0  0
   -3.5190   -4.7200    2.7020 C   0  0  0  0  0  0  0  0  0  0  0  0
    2.5930    1.7200   -3.1440 C   0  0  0  0  0  0  0  0  0  0  0  0
   -2.5380   -4.0090    2.0090 C   0  0  0  0  0  0  0  0  0  0  0  0
    1.3390    1.3980   -2.6230 C   0  0  0  0  0  0  0  0  0  0  0  0
    3.2390    0.8360   -4.0030 C   0  0  0  0  0  0  0  0  0  0  0  0
    4.4580   -1.0570   -5.7260 C   0  0  0  0  0  0  0  0  0  0  0  0
    0.0990   -1.8090   -1.2060 H   0  0  0  0  0  0  0  0  0  0  0  0
   -0.9370   -2.6230    0.6730 H   0  0  0  0  0  0  0  0  0  0  0  0
   -1.1740    0.7440   -2.2050 H   0  0  0  0  0  0  0  0  0  0  0  0
   -1.1440   -0.8000   -3.0900 H   0  0  0  0  0  0  0  0  0  0  0  0
   -4.5370   -2.1120    0.0280 H   0  0  0  0  0  0  0  0  0  0  0  0
    0.9240   -1.6450   -4.0650 H   0  0  0  0  0  0  0  0  0  0  0  0
   -5.6260   -5.0430    2.9660 H   0  0  0  0  0  0  0  0  0  0  0  0
   -3.2330   -5.4470    3.4480 H   0  0  0  0  0  0  0  0  0  0  0  0
    3.0630    2.6560   -2.8800 H   0  0  0  0  0  0  0  0  0  0  0  0
   -1.4950   -4.1910    2.2230 H   0  0  0  0  0  0  0  0  0  0  0  0
    0.8480    2.0730   -1.9370 H   0  0  0  0  0  0  0  0  0  0  0  0
    4.2080    1.0880   -4.4070 H   0  0  0  0  0  0  0  0  0  0  0  0
    4.7660   -1.8870   -6.3620 H   0  0  0  0  0  0  0  0  0  0  0  0
    5.1790   -0.9320   -4.9180 H   0  0  0  0  0  0  0  0  0  0  0  0
    4.4130   -0.1430   -6.3180 H   0  0  0  0  0  0  0  0  0  0  0  0
  1  2  1  0  0  0  0
  1  4  2  0  0  0  0
  1  8  1  0  0  0  0
  2  6  1  0  0  0  0
  2 11  1  0  0  0  0
  2 29  1  6  0  0  0
  3  4  1  0  0  0  0
  3  5  2  0  0  0  0
  5  8  1  0  0  0  0
  6  9  1  0  0  0  0
  6 12  2  0  0  0  0
  7 10  1  0  0  0  0
  7 16  1  0  0  0  0
  7 17  1  0  0  0  0
  7 18  1  0  0  0  0
  9 13  1  0  0  0  0
  9 30  1  0  0  0  0
 10 14  2  0  0  0  0
 10 22  1  0  0  0  0
 11 15  1  0  0  0  0
 11 31  1  0  0  0  0
 11 32  1  0  0  0  0
 13 14  1  0  0  0  0
 13 25  2  0  0  0  0
 14 33  1  0  0  0  0
 15 19  2  0  0  0  0
 15 26  1  0  0  0  0
 19 20  1  0  0  0  0
 19 34  1  0  0  0  0
 20 21  1  0  0  0  0
 20 27  2  0  0  0  0
 21 28  1  0  0  0  0
 22 23  2  0  0  0  0
 22 35  1  0  0  0  0
 23 25  1  0  0  0  0
 23 36  1  0  0  0  0
 24 26  2  0  0  0  0
 24 27  1  0  0  0  0
 24 37  1  0  0  0  0
 25 38  1  0  0  0  0
 26 39  1  0  0  0  0
 27 40  1  0  0  0  0
 28 41  1  0  0  0  0
 28 42  1  0  0  0  0
 28 43  1  0  0  0  0
M  CHG  1   8  -1
M  END
>  <$CLUSTER>
877

>  <INDEX>
130463

$$$$
InterBioScreen STOCK4S-65808
 OpenBabel04062209303D

 40 41  0  0  0  0  0  0  0  0999 V2000
   -0.2240   -0.4330   -0.3160 C   0  0  0  0  0  0  0  0  0  0  0  0
    1.4240   -0.4240   -0.7690 S   0  0  0  0  0  0  0  0  0  0  0  0
   -0.8240   -1.5920   -0.4960 N   0  0  0  0  0  0  0  0  0  0  0  0
    0.0280   -2.5490   -1.0170 N   0  0  0  0  0  0  0  0  0  0  0  0
   -0.8630    0.6830    0.1920 N   0  0  0  0  0  0  0  0  0  0  0  0
    1.2360   -2.0680   -1.2070 C   0  0  0  0  0  0  0  0  0  0  0  0
   -0.3020    1.9340    0.4100 C   0  0  0  0  0  0  0  0  0  0  0  0
   -1.8170    5.2200    1.8100 C   0  0  0  0  0  0  0  0  0  0  0  0
   -1.3220    6.4820    2.0530 N   0  0  0  0  0  0  0  0  0  0  0  0
   -1.9480    7.6340    2.5710 C   0  0  0  0  0  0  0  0  0  0  0  0
   -3.2950    7.6620    2.9490 C   0  0  0  0  0  0  0  0  0  0  0  0
    0.8500    2.3010    0.2020 O   0  0  0  0  0  0  0  0  0  0  0  0
   -2.9830    4.8980    2.0340 O   0  0  0  0  0  0  0  0  0  0  0  0
   -1.3220    2.8910    0.9770 C   0  0  0  0  0  0  0  0  0  0  0  0
   -3.8600    8.8360    3.4570 C   0  0  0  0  0  0  0  0  0  0  0  0
   -0.7800    4.2880    1.2460 C   0  0  0  0  0  0  0  0  0  0  0  0
   -5.6470    8.8340    3.9490 Br  0  0  0  0  0  0  0  0  0  0  0  0
    2.3810   -2.8600   -1.7620 C   0  0  0  0  0  0  0  0  0  0  0  0
   -1.7500    9.9720    3.2190 C   0  0  0  0  0  0  0  0  0  0  0  0
   -1.1820    8.8010    2.7110 C   0  0  0  0  0  0  0  0  0  0  0  0
   -3.0900    9.9890    3.5920 C   0  0  0  0  0  0  0  0  0  0  0  0
    2.3820   -2.8520   -3.2820 C   0  0  0  0  0  0  0  0  0  0  0  0
    3.5460   -3.6570   -3.8570 C   0  0  0  0  0  0  0  0  0  0  0  0
   -1.8390    0.5770    0.4290 H   0  0  0  0  0  0  0  0  0  0  0  0
   -0.3460    6.6020    1.8210 H   0  0  0  0  0  0  0  0  0  0  0  0
   -3.9010    6.7730    2.8480 H   0  0  0  0  0  0  0  0  0  0  0  0
   -1.6920    2.4800    1.9170 H   0  0  0  0  0  0  0  0  0  0  0  0
   -2.1450    2.9740    0.2680 H   0  0  0  0  0  0  0  0  0  0  0  0
    0.0420    4.2110    1.9580 H   0  0  0  0  0  0  0  0  0  0  0  0
   -0.4110    4.7040    0.3090 H   0  0  0  0  0  0  0  0  0  0  0  0
    2.3010   -3.8900   -1.4140 H   0  0  0  0  0  0  0  0  0  0  0  0
    3.3160   -2.4280   -1.4050 H   0  0  0  0  0  0  0  0  0  0  0  0
   -1.1490   10.8630    3.3220 H   0  0  0  0  0  0  0  0  0  0  0  0
   -0.1410    8.7940    2.4230 H   0  0  0  0  0  0  0  0  0  0  0  0
   -3.5320   10.8930    3.9850 H   0  0  0  0  0  0  0  0  0  0  0  0
    2.4610   -1.8220   -3.6290 H   0  0  0  0  0  0  0  0  0  0  0  0
    1.4460   -3.2840   -3.6370 H   0  0  0  0  0  0  0  0  0  0  0  0
    4.4880   -3.2340   -3.5080 H   0  0  0  0  0  0  0  0  0  0  0  0
    3.5120   -3.6190   -4.9460 H   0  0  0  0  0  0  0  0  0  0  0  0
    3.4690   -4.6930   -3.5270 H   0  0  0  0  0  0  0  0  0  0  0  0
  1  2  1  0  0  0  0
  1  3  2  0  0  0  0
  1  5  1  0  0  0  0
  2  6  1  0  0  0  0
  3  4  1  0  0  0  0
  4  6  2  0  0  0  0
  5  7  1  0  0  0  0
  5 24  1  0  0  0  0
  6 18  1  0  0  0  0
  7 12  2  0  0  0  0
  7 14  1  0  0  0  0
  8  9  1  0  0  0  0
  8 13  2  0  0  0  0
  8 16  1  0  0  0  0
  9 10  1  0  0  0  0
  9 25  1  0  0  0  0
 10 11  2  0  0  0  0
 10 20  1  0  0  0  0
 11 15  1  0  0  0  0
 11 26  1  0  0  0  0
 14 16  1  0  0  0  0
 14 27  1  0  0  0  0
 14 28  1  0  0  0  0
 15 17  1  0  0  0  0
 15 21  2  0  0  0  0
 16 29  1  0  0  0  0
 16 30  1  0  0  0  0
 18 22  1  0  0  0  0
 18 31  1  0  0  0  0
 18 32  1  0  0  0  0
 19 20  2  0  0  0  0
 19 21  1  0  0  0  0
 19 33  1  0  0  0  0
 20 34  1  0  0  0  0
 21 35  1  0  0  0  0
 22 23  1  0  0  0  0
 22 36  1  0  0  0  0
 22 37  1  0  0  0  0
 23 38  1  0  0  0  0
 23 39  1  0  0  0  0
 23 40  1  0  0  0  0
M  END
>  <$CLUSTER>
554

>  <INDEX>
358888

$$$$
Life Chemicals F0579-0521
 OpenBabel04062209303D

 47 50  0  0  0  0  0  0  0  0999 V2000
    0.5020    0.2990   -1.9970 N   0  0  0  0  0  0  0  0  0  0  0  0
   -0.7560    0.8240   -1.8970 C   0  0  0  0  0  0  0  0  0  0  0  0
    1.1650   -0.2500   -0.9310 C   0  0  0  0  0  0  0  0  0  0  0  0
    0.3860   -0.2130    0.3120 C   0  0  0  0  0  0  0  0  0  0  0  0
   -1.4500    0.8620   -0.8020 N   0  0  0  0  0  0  0  0  0  0  0  0
   -0.8340    0.3250    0.3020 C   0  0  0  0  0  0  0  0  0  0  0  0
   -1.5240    1.7270   -3.2320 S   0  0  0  0  0  0  0  0  0  0  0  0
    0.9380   -0.8130    1.8230 S   0  0  0  0  0  0  0  0  0  0  0  0
    1.1450    0.1800   -3.3380 C   0  0  0  0  0  0  0  0  0  0  0  0
    2.2960   -0.7240   -1.0080 O   0  0  0  0  0  0  0  0  0  0  0  0
   -3.8390    1.9540   -1.7110 C   0  0  0  0  0  0  0  0  0  0  0  0
   -3.8030    1.1800   -0.6020 N   0  0  0  0  0  0  0  0  0  0  0  0
   -1.5140    0.3170    1.6390 C   0  0  0  0  0  0  0  0  0  0  0  0
   -4.2230    3.1190   -1.6980 O   0  0  0  0  0  0  0  0  0  0  0  0
   -3.2570    1.2950   -2.9560 C   0  0  0  0  0  0  0  0  0  0  0  0
    0.5030   -0.4200   -4.4330 C   0  0  0  0  0  0  0  0  0  0  0  0
    2.4660    0.6300   -3.4940 C   0  0  0  0  0  0  0  0  0  0  0  0
   -4.2210    1.4040    0.7180 C   0  0  0  0  0  0  0  0  0  0  0  0
   -0.7320   -0.6270    2.5590 C   0  0  0  0  0  0  0  0  0  0  0  0
    2.4600   -0.0660   -5.8080 C   0  0  0  0  0  0  0  0  0  0  0  0
    1.1560   -0.5370   -5.6620 C   0  0  0  0  0  0  0  0  0  0  0  0
    3.1150    0.5130   -4.7250 C   0  0  0  0  0  0  0  0  0  0  0  0
   -5.0210    1.7760    3.3870 C   0  0  0  0  0  0  0  0  0  0  0  0
    3.0060   -0.2080   -7.0170 F   0  0  0  0  0  0  0  0  0  0  0  0
   -4.7630    2.6250    1.1320 C   0  0  0  0  0  0  0  0  0  0  0  0
   -4.0850    0.3720    1.6600 C   0  0  0  0  0  0  0  0  0  0  0  0
   -4.4830    0.5570    2.9860 C   0  0  0  0  0  0  0  0  0  0  0  0
   -5.1600    2.8080    2.4610 C   0  0  0  0  0  0  0  0  0  0  0  0
   -5.4460    1.9760    4.8040 C   0  0  0  0  0  0  0  0  0  0  0  0
   -3.3980    0.2670   -0.7530 H   0  0  0  0  0  0  0  0  0  0  0  0
   -2.5390   -0.0360    1.5310 H   0  0  0  0  0  0  0  0  0  0  0  0
   -1.5190    1.3230    2.0580 H   0  0  0  0  0  0  0  0  0  0  0  0
   -3.3330    0.2130   -2.8450 H   0  0  0  0  0  0  0  0  0  0  0  0
   -3.8370    1.6130   -3.8220 H   0  0  0  0  0  0  0  0  0  0  0  0
   -0.5040   -0.7940   -4.3240 H   0  0  0  0  0  0  0  0  0  0  0  0
    2.9840    1.0700   -2.6550 H   0  0  0  0  0  0  0  0  0  0  0  0
   -0.6570   -0.2000    3.5590 H   0  0  0  0  0  0  0  0  0  0  0  0
   -1.2290   -1.5960    2.6140 H   0  0  0  0  0  0  0  0  0  0  0  0
    0.6500   -0.9930   -6.5000 H   0  0  0  0  0  0  0  0  0  0  0  0
    4.1270    0.8730   -4.8370 H   0  0  0  0  0  0  0  0  0  0  0  0
   -4.8760    3.4310    0.4220 H   0  0  0  0  0  0  0  0  0  0  0  0
   -3.6680   -0.5760    1.3560 H   0  0  0  0  0  0  0  0  0  0  0  0
   -4.3730   -0.2460    3.7000 H   0  0  0  0  0  0  0  0  0  0  0  0
   -5.5770    3.7550    2.7710 H   0  0  0  0  0  0  0  0  0  0  0  0
   -5.2600    1.0640    5.3710 H   0  0  0  0  0  0  0  0  0  0  0  0
   -6.5100    2.2130    4.8340 H   0  0  0  0  0  0  0  0  0  0  0  0
   -4.8780    2.7970    5.2410 H   0  0  0  0  0  0  0  0  0  0  0  0
  1  2  1  0  0  0  0
  1  3  1  0  0  0  0
  1  9  1  0  0  0  0
  2  5  2  0  0  0  0
  2  7  1  0  0  0  0
  3  4  1  0  0  0  0
  3 10  2  0  0  0  0
  4  6  2  0  0  0  0
  4  8  1  0  0  0  0
  5  6  1  0  0  0  0
  6 13  1  0  0  0  0
  7 15  1  0  0  0  0
  8 19  1  0  0  0  0
  9 16  2  0  0  0  0
  9 17  1  0  0  0  0
 11 12  1  0  0  0  0
 11 14  2  0  0  0  0
 11 15  1  0  0  0  0
 12 18  1  0  0  0  0
 12 30  1  0  0  0  0
 13 19  1  0  0  0  0
 13 31  1  0  0  0  0
 13 32  1  0  0  0  0
 15 33  1  0  0  0  0
 15 34  1  0  0  0  0
 16 21  1  0  0  0  0
 16 35  1  0  0  0  0
 17 22  2  0  0  0  0
 17 36  1  0  0  0  0
 18 25  1  0  0  0  0
 18 26  2  0  0  0  0
 19 37  1  0  0  0  0
 19 38  1  0  0  0  0
 20 21  2  0  0  0  0
 20 22  1  0  0  0  0
 20 24  1  0  0  0  0
 21 39  1  0  0  0  0
 22 40  1  0  0  0  0
 23 27  2  0  0  0  0
 23 28  1  0  0  0  0
 23 29  1  0  0  0  0
 25 28  2  0  0  0  0
 25 41  1  0  0  0  0
 26 27  1  0  0  0  0
 26 42  1  0  0  0  0
 27 43  1  0  0  0  0
 28 44  1  0  0  0  0
 29 45  1  0  0  0  0
 29 46  1  0  0  0  0
 29 47  1  0  0  0  0
M  END
>  <$CLUSTER>
217

>  <INDEX>
275208

$$$$
Chem T&I UZI/1102918
 OpenBabel04062209303D

 44 46  0  0  0  0  0  0  0  0999 V2000
    1.5830    1.5040   -0.1400 S   0  0  0  0  0  0  0  0  0  0  0  0
   -3.7520   -2.9070   -0.8560 S   0  0  0  0  0  0  0  0  0  0  0  0
    0.2990    2.6940    0.1780 C   0  0  0  0  0  0  0  0  0  0  0  0
    1.0620    0.2120    0.8600 N   0  0  0  0  0  0  0  0  0  0  0  0
   -2.3400   -1.9790   -0.3670 C   0  0  0  0  0  0  0  0  0  0  0  0
    1.5160    1.1400   -1.5410 O   0  0  0  0  0  0  0  0  0  0  0  0
    2.8060    2.0420    0.4260 O   0  0  0  0  0  0  0  0  0  0  0  0
    0.4380    3.5990    1.2230 C   0  0  0  0  0  0  0  0  0  0  0  0
   -3.2880   -4.0450   -1.6240 O   0  0  0  0  0  0  0  0  0  0  0  0
   -4.5860   -3.0910    0.3150 O   0  0  0  0  0  0  0  0  0  0  0  0
   -4.5040   -1.7960   -1.9060 N   0  0  0  0  0  0  0  0  0  0  0  0
   -0.5670    4.5410    1.4450 C   0  0  0  0  0  0  0  0  0  0  0  0
   -0.8200    2.7120   -0.6550 C   0  0  0  0  0  0  0  0  0  0  0  0
   -0.0820   -0.5500    0.4390 C   0  0  0  0  0  0  0  0  0  0  0  0
   -1.6940    4.5700    0.6230 C   0  0  0  0  0  0  0  0  0  0  0  0
   -2.3980   -1.1660    0.7640 C   0  0  0  0  0  0  0  0  0  0  0  0
   -1.1540   -2.0800   -1.0940 C   0  0  0  0  0  0  0  0  0  0  0  0
   -1.8190    3.6570   -0.4250 C   0  0  0  0  0  0  0  0  0  0  0  0
   -1.2700   -0.4500    1.1690 C   0  0  0  0  0  0  0  0  0  0  0  0
   -0.0240   -1.3660   -0.6940 C   0  0  0  0  0  0  0  0  0  0  0  0
   -0.4560    5.4780    2.5070 C   0  0  0  0  0  0  0  0  0  0  0  0
   -5.0380   -0.5310   -1.3740 C   0  0  0  0  0  0  0  0  0  0  0  0
   -2.7090    5.5380    0.8630 C   0  0  0  0  0  0  0  0  0  0  0  0
   -6.0730    0.0210   -2.3380 C   0  0  0  0  0  0  0  0  0  0  0  0
   -1.4590    6.4220    2.7310 C   0  0  0  0  0  0  0  0  0  0  0  0
   -2.5830    6.4520    1.9110 C   0  0  0  0  0  0  0  0  0  0  0  0
    1.5450   -0.0070    1.7200 H   0  0  0  0  0  0  0  0  0  0  0  0
    1.3130    3.5740    1.8560 H   0  0  0  0  0  0  0  0  0  0  0  0
   -5.2770   -2.2800   -2.3390 H   0  0  0  0  0  0  0  0  0  0  0  0
   -0.9110    2.0040   -1.4660 H   0  0  0  0  0  0  0  0  0  0  0  0
   -3.3160   -1.0900    1.3270 H   0  0  0  0  0  0  0  0  0  0  0  0
   -1.1100   -2.7120   -1.9680 H   0  0  0  0  0  0  0  0  0  0  0  0
   -2.6920    3.6830   -1.0600 H   0  0  0  0  0  0  0  0  0  0  0  0
   -1.3150    0.1800    2.0450 H   0  0  0  0  0  0  0  0  0  0  0  0
    0.8930   -1.4440   -1.2590 H   0  0  0  0  0  0  0  0  0  0  0  0
    0.4130    5.4600    3.1470 H   0  0  0  0  0  0  0  0  0  0  0  0
   -4.2260    0.1880   -1.2600 H   0  0  0  0  0  0  0  0  0  0  0  0
   -5.5030   -0.7110   -0.4050 H   0  0  0  0  0  0  0  0  0  0  0  0
   -3.5830    5.5660    0.2300 H   0  0  0  0  0  0  0  0  0  0  0  0
   -5.6080    0.2010   -3.3070 H   0  0  0  0  0  0  0  0  0  0  0  0
   -6.4710    0.9570   -1.9470 H   0  0  0  0  0  0  0  0  0  0  0  0
   -6.8840   -0.6990   -2.4520 H   0  0  0  0  0  0  0  0  0  0  0  0
   -1.3630    7.1300    3.5410 H   0  0  0  0  0  0  0  0  0  0  0  0
   -3.3590    7.1830    2.0850 H   0  0  0  0  0  0  0  0  0  0  0  0
  1  3  1  0  0  0  0
  1  4  1  0  0  0  0
  1  6  2  0  0  0  0
  1  7  2  0  0  0  0
  2  5  1  0  0  0  0
  2  9  2  0  0  0  0
  2 10  2  0  0  0  0
  2 11  1  0  0  0  0
  3  8  2  0  0  0  0
  3 13  1  0  0  0  0
  4 14  1  0  0  0  0
  4 27  1  0  0  0  0
  5 16  2  0  0  0  0
  5 17  1  0  0  0  0
  8 12  1  0  0  0  0
  8 28  1  0  0  0  0
 11 22  1  0  0  0  0
 11 29  1  0  0  0  0
 12 15  2  0  0  0  0
 12 21  1  0  0  0  0
 13 18  2  0  0  0  0
 13 30  1  0  0  0  0
 14 19  2  0  0  0  0
 14 20  1  0  0  0  0
 15 18  1  0  0  0  0
 15 23  1  0  0  0  0
 16 19  1  0  0  0  0
 16 31  1  0  0  0  0
 17 20  2  0  0  0  0
 17 32  1  0  0  0  0
 18 33  1  0  0  0  0
 19 34  1  0  0  0  0
 20 35  1  0  0  0  0
 21 25  2  0  0  0  0
 21 36  1  0  0  0  0
 22 24  1  0  0  0  0
 22 37  1  0  0  0  0
 22 38  1  0  0  0  0
 23 26  2  0  0  0  0
 23 39  1  0  0  0  0
 24 40  1  0  0  0  0
 24 41  1  0  0  0  0
 24 42  1  0  0  0  0
 25 26  1  0  0  0  0
 25 43  1  0  0  0  0
 26 44  1  0  0  0  0
M  END
>  <$CLUSTER>
473

>  <INDEX>
647335

$$$$
Asinex ASN 06916822
 OpenBabel04062209303D

 55 58  0  0  0  0  0  0  0  0999 V2000
    0.1180   -0.1790    0.3680 C   0  0  0  0  0  0  0  0  0  0  0  0
   -1.0080    0.5880    0.3250 N   0  0  0  0  0  0  0  0  0  0  0  0
    0.0820   -0.8810   -0.8240 C   0  0  0  0  0  0  0  0  0  0  0  0
    1.0570   -0.2510    1.3240 N   0  0  0  0  0  0  0  0  0  0  0  0
   -1.6990    0.3780   -0.8150 N   0  0  0  0  0  0  0  0  0  0  0  0
   -1.0340   -0.5270   -1.5290 N   0  0  0  0  0  0  0  0  0  0  0  0
    2.1110   -1.8900   -0.1470 N   0  0  0  0  0  0  0  0  0  0  0  0
    2.0170   -1.1370    0.9760 C   0  0  0  0  0  0  0  0  0  0  0  0
    1.1260   -1.7640   -1.0700 C   0  0  0  0  0  0  0  0  0  0  0  0
    5.6660   -2.5300    2.8760 N   0  0  0  0  0  0  0  0  0  0  0  0
    6.7640   -3.3160    2.6920 C   0  0  0  0  0  0  0  0  0  0  0  0
   -1.4880    1.5280    1.3110 C   0  0  0  0  0  0  0  0  0  0  0  0
    3.1630   -1.3030    2.0180 C   0  0  0  0  0  0  0  0  0  0  0  0
    5.6390   -1.1340    2.4280 C   0  0  0  0  0  0  0  0  0  0  0  0
    4.3990   -2.9060    3.5100 C   0  0  0  0  0  0  0  0  0  0  0  0
    7.8040   -2.9360    2.1480 O   0  0  0  0  0  0  0  0  0  0  0  0
    3.2190   -2.7300    2.5660 C   0  0  0  0  0  0  0  0  0  0  0  0
    4.5120   -0.8810    1.4360 C   0  0  0  0  0  0  0  0  0  0  0  0
    1.1870   -2.4930   -2.1950 O   0  0  0  0  0  0  0  0  0  0  0  0
   -1.0100    2.9430    1.0360 C   0  0  0  0  0  0  0  0  0  0  0  0
   -0.1130    5.5530    0.5180 C   0  0  0  0  0  0  0  0  0  0  0  0
   -1.8460    3.8680    0.3930 C   0  0  0  0  0  0  0  0  0  0  0  0
    0.2870    3.3360    1.4000 C   0  0  0  0  0  0  0  0  0  0  0  0
   -1.4000    5.1680    0.1390 C   0  0  0  0  0  0  0  0  0  0  0  0
    0.7310    4.6370    1.1460 C   0  0  0  0  0  0  0  0  0  0  0  0
    6.6710   -4.7340    3.1960 C   0  0  0  0  0  0  0  0  0  0  0  0
    0.3620    6.9430    0.2530 C   0  0  0  0  0  0  0  0  0  0  0  0
    7.8730   -5.5810    2.9880 C   0  0  0  0  0  0  0  0  0  0  0  0
    7.7380   -6.9860    3.5050 C   0  0  0  0  0  0  0  0  0  0  0  0
   -1.1280    1.2210    2.2930 H   0  0  0  0  0  0  0  0  0  0  0  0
   -2.5780    1.5180    1.3040 H   0  0  0  0  0  0  0  0  0  0  0  0
    2.9410   -0.6380    2.8530 H   0  0  0  0  0  0  0  0  0  0  0  0
    6.5900   -0.8980    1.9500 H   0  0  0  0  0  0  0  0  0  0  0  0
    5.4980   -0.4880    3.2940 H   0  0  0  0  0  0  0  0  0  0  0  0
    4.2450   -2.2790    4.3880 H   0  0  0  0  0  0  0  0  0  0  0  0
    4.4540   -3.9510    3.8150 H   0  0  0  0  0  0  0  0  0  0  0  0
    3.3210   -3.4270    1.7340 H   0  0  0  0  0  0  0  0  0  0  0  0
    2.2960   -2.9410    3.1060 H   0  0  0  0  0  0  0  0  0  0  0  0
    4.4800    0.1820    1.1970 H   0  0  0  0  0  0  0  0  0  0  0  0
    4.7020   -1.4520    0.5270 H   0  0  0  0  0  0  0  0  0  0  0  0
    1.9510   -3.0700   -2.2640 H   0  0  0  0  0  0  0  0  0  0  0  0
   -2.8410    3.5740    0.0920 H   0  0  0  0  0  0  0  0  0  0  0  0
    0.9470    2.6280    1.8800 H   0  0  0  0  0  0  0  0  0  0  0  0
   -2.0520    5.8760   -0.3510 H   0  0  0  0  0  0  0  0  0  0  0  0
    1.7280    4.9330    1.4360 H   0  0  0  0  0  0  0  0  0  0  0  0
    5.8340   -5.2140    2.6890 H   0  0  0  0  0  0  0  0  0  0  0  0
    6.4730   -4.6950    4.2670 H   0  0  0  0  0  0  0  0  0  0  0  0
   -0.4280    7.5090   -0.2400 H   0  0  0  0  0  0  0  0  0  0  0  0
    1.2410    6.9100   -0.3900 H   0  0  0  0  0  0  0  0  0  0  0  0
    0.6200    7.4250    1.1960 H   0  0  0  0  0  0  0  0  0  0  0  0
    8.7140   -5.1100    3.4960 H   0  0  0  0  0  0  0  0  0  0  0  0
    8.0750   -5.6290    1.9180 H   0  0  0  0  0  0  0  0  0  0  0  0
    7.5350   -6.9610    4.5760 H   0  0  0  0  0  0  0  0  0  0  0  0
    8.6650   -7.5310    3.3240 H   0  0  0  0  0  0  0  0  0  0  0  0
    6.9170   -7.4850    2.9910 H   0  0  0  0  0  0  0  0  0  0  0  0
  1  2  1  0  0  0  0
  1  3  1  0  0  0  0
  1  4  2  0  0  0  0
  2  5  1  0  0  0  0
  2 12  1  0  0  0  0
  3  6  1  0  0  0  0
  3  9  2  0  0  0  0
  4  8  1  0  0  0  0
  5  6  2  0  0  0  0
  7  8  2  0  0  0  0
  7  9  1  0  0  0  0
  8 13  1  0  0  0  0
  9 19  1  0  0  0  0
 10 11  1  0  0  0  0
 10 14  1  0  0  0  0
 10 15  1  0  0  0  0
 11 16  2  0  0  0  0
 11 26  1  0  0  0  0
 12 20  1  0  0  0  0
 12 30  1  0  0  0  0
 12 31  1  0  0  0  0
 13 17  1  0  0  0  0
 13 18  1  0  0  0  0
 13 32  1  0  0  0  0
 14 18  1  0  0  0  0
 14 33  1  0  0  0  0
 14 34  1  0  0  0  0
 15 17  1  0  0  0  0
 15 35  1  0  0  0  0
 15 36  1  0  0  0  0
 17 37  1  0  0  0  0
 17 38  1  0  0  0  0
 18 39  1  0  0  0  0
 18 40  1  0  0  0  0
 19 41  1  0  0  0  0
 20 22  2  0  0  0  0
 20 23  1  0  0  0  0
 21 24  2  0  0  0  0
 21 25  1  0  0  0  0
 21 27  1  0  0  0  0
 22 24  1  0  0  0  0
 22 42  1  0  0  0  0
 23 25  2  0  0  0  0
 23 43  1  0  0  0  0
 24 44  1  0  0  0  0
 25 45  1  0  0  0  0
 26 28  1  0  0  0  0
 26 46  1  0  0  0  0
 26 47  1  0  0  0  0
 27 48  1  0  0  0  0
 27 49  1  0  0  0  0
 27 50  1  0  0  0  0
 28 29  1  0  0  0  0
 28 51  1  0  0  0  0
 28 52  1  0  0  0  0
 29 53  1  0  0  0  0
 29 54  1  0  0  0  0
 29 55  1  0  0  0  0
M  END
>  <$CLUSTER>
937

>  <INDEX>
164267

$$$$
Asinex ASN 04361294
 OpenBabel04062209303D

 45 47  0  0  0  0  0  0  0  0999 V2000
    0.5140    3.6210   -5.3200 S   0  0  0  0  0  0  0  0  0  0  0  0
    0.7130    0.6750    0.2720 S   0  0  0  0  0  0  0  0  0  0  0  0
    1.9810    4.4230   -5.3940 N   0  0  0  0  0  0  0  0  0  0  0  0
   -0.7380   -0.1800    0.3130 N   0  0  0  0  0  0  0  0  0  0  0  0
    0.5770    2.8030   -3.7540 C   0  0  0  0  0  0  0  0  0  0  0  0
    0.6240    1.5020   -1.3140 C   0  0  0  0  0  0  0  0  0  0  0  0
    0.5130    2.6120   -6.3660 O   0  0  0  0  0  0  0  0  0  0  0  0
   -0.5340    4.6260   -5.2800 O   0  0  0  0  0  0  0  0  0  0  0  0
   -2.1100   -2.1180   -0.1940 C   0  0  0  0  0  0  0  0  0  0  0  0
   -3.6940   -1.7750   -0.7470 S   0  0  0  0  0  0  0  0  0  0  0  0
    0.6480    1.6750    1.3260 O   0  0  0  0  0  0  0  0  0  0  0  0
    1.8020   -0.2870    0.2480 O   0  0  0  0  0  0  0  0  0  0  0  0
   -0.9400   -1.2660   -0.6510 C   0  0  0  0  0  0  0  0  0  0  0  0
   -4.3470   -3.0960    0.1210 C   0  0  0  0  0  0  0  0  0  0  0  0
   -2.0830   -3.2270    0.6220 C   0  0  0  0  0  0  0  0  0  0  0  0
   -3.3780   -3.7890    0.8100 C   0  0  0  0  0  0  0  0  0  0  0  0
    1.1200    1.5210   -3.6620 C   0  0  0  0  0  0  0  0  0  0  0  0
    0.0650    3.4330   -2.6180 C   0  0  0  0  0  0  0  0  0  0  0  0
    0.0950    2.7810   -1.3850 C   0  0  0  0  0  0  0  0  0  0  0  0
    1.1520    0.8630   -2.4310 C   0  0  0  0  0  0  0  0  0  0  0  0
    2.1930    5.5700   -4.4710 C   0  0  0  0  0  0  0  0  0  0  0  0
    3.2160    3.6050   -5.5340 C   0  0  0  0  0  0  0  0  0  0  0  0
    4.4240    4.4360   -5.9540 C   0  0  0  0  0  0  0  0  0  0  0  0
    3.3860    6.4330   -4.8740 C   0  0  0  0  0  0  0  0  0  0  0  0
    4.6590    5.6110   -5.0170 C   0  0  0  0  0  0  0  0  0  0  0  0
   -1.4820    0.4880    0.1690 H   0  0  0  0  0  0  0  0  0  0  0  0
   -0.0400   -1.8790   -0.7050 H   0  0  0  0  0  0  0  0  0  0  0  0
   -1.1540   -0.8470   -1.6340 H   0  0  0  0  0  0  0  0  0  0  0  0
   -5.3950   -3.3560    0.1280 H   0  0  0  0  0  0  0  0  0  0  0  0
   -1.1830   -3.6250    1.0680 H   0  0  0  0  0  0  0  0  0  0  0  0
   -3.5760   -4.6570    1.4210 H   0  0  0  0  0  0  0  0  0  0  0  0
    1.5160    1.0380   -4.5430 H   0  0  0  0  0  0  0  0  0  0  0  0
   -0.3540    4.4250   -2.6940 H   0  0  0  0  0  0  0  0  0  0  0  0
   -0.2880    3.2660   -0.4990 H   0  0  0  0  0  0  0  0  0  0  0  0
    1.5790   -0.1250   -2.3470 H   0  0  0  0  0  0  0  0  0  0  0  0
    2.3650    5.1830   -3.4670 H   0  0  0  0  0  0  0  0  0  0  0  0
    1.2970    6.1900   -4.4730 H   0  0  0  0  0  0  0  0  0  0  0  0
    3.0420    2.8360   -6.2870 H   0  0  0  0  0  0  0  0  0  0  0  0
    3.4330    3.1330   -4.5760 H   0  0  0  0  0  0  0  0  0  0  0  0
    4.2560    4.8170   -6.9610 H   0  0  0  0  0  0  0  0  0  0  0  0
    5.3090    3.7990   -5.9490 H   0  0  0  0  0  0  0  0  0  0  0  0
    3.5430    7.1960   -4.1110 H   0  0  0  0  0  0  0  0  0  0  0  0
    3.1670    6.9130   -5.8280 H   0  0  0  0  0  0  0  0  0  0  0  0
    5.4510    6.2410   -5.4220 H   0  0  0  0  0  0  0  0  0  0  0  0
    4.9570    5.2360   -4.0380 H   0  0  0  0  0  0  0  0  0  0  0  0
  1  3  1  0  0  0  0
  1  5  1  0  0  0  0
  1  7  2  0  0  0  0
  1  8  2  0  0  0  0
  2  4  1  0  0  0  0
  2  6  1  0  0  0  0
  2 11  2  0  0  0  0
  2 12  2  0  0  0  0
  3 21  1  0  0  0  0
  3 22  1  0  0  0  0
  4 13  1  0  0  0  0
  4 26  1  0  0  0  0
  5 17  1  0  0  0  0
  5 18  2  0  0  0  0
  6 19  2  0  0  0  0
  6 20  1  0  0  0  0
  9 10  1  0  0  0  0
  9 13  1  0  0  0  0
  9 15  2  0  0  0  0
 10 14  1  0  0  0  0
 13 27  1  0  0  0  0
 13 28  1  0  0  0  0
 14 16  2  0  0  0  0
 14 29  1  0  0  0  0
 15 16  1  0  0  0  0
 15 30  1  0  0  0  0
 16 31  1  0  0  0  0
 17 20  2  0  0  0  0
 17 32  1  0  0  0  0
 18 19  1  0  0  0  0
 18 33  1  0  0  0  0
 19 34  1  0  0  0  0
 20 35  1  0  0  0  0
 21 24  1  0  0  0  0
 21 36  1  0  0  0  0
 21 37  1  0  0  0  0
 22 23  1  0  0  0  0
 22 38  1  0  0  0  0
 22 39  1  0  0  0  0
 23 25  1  0  0  0  0
 23 40  1  0  0  0  0
 23 41  1  0  0  0  0
 24 25  1  0  0  0  0
 24 42  1  0  0  0  0
 24 43  1  0  0  0  0
 25 44  1  0  0  0  0
 25 45  1  0  0  0  0
M  END
>  <$CLUSTER>
283

>  <INDEX>
137208

$$$$
Tripos 1557-10610
 OpenBabel04062209303D

 45 47  0  0  1  0  0  0  0  0999 V2000
   -1.4930    0.5590    1.7510 S   0  0  0  0  0  0  0  0  0  0  0  0
   -0.7260    0.4640    0.2240 N   0  0  0  0  0  0  0  0  0  0  0  0
   -0.1840   -0.8390   -0.2590 C   0  0  2  0  0  0  0  0  0  0  0  0
   -0.1070    0.6400    2.8620 C   0  0  0  0  0  0  0  0  0  0  0  0
    1.1800   -1.1800    0.2870 C   0  0  0  0  0  0  0  0  0  0  0  0
   -2.1940   -0.6810    2.0230 O   0  0  0  0  0  0  0  0  0  0  0  0
   -2.1910    1.8270    1.8530 O   0  0  0  0  0  0  0  0  0  0  0  0
    0.4490   -0.5480    3.3700 C   0  0  0  0  0  0  0  0  0  0  0  0
    1.5230   -0.4870    4.2600 C   0  0  0  0  0  0  0  0  0  0  0  0
    0.4180    1.8770    3.2520 C   0  0  0  0  0  0  0  0  0  0  0  0
    2.0050   -0.3990    0.7370 O   0  0  0  0  0  0  0  0  0  0  0  0
    2.0420    0.7500    4.6450 C   0  0  0  0  0  0  0  0  0  0  0  0
    1.4910    1.9310    4.1420 C   0  0  0  0  0  0  0  0  0  0  0  0
   -0.0500    1.6780   -0.3160 C   0  0  0  0  0  0  0  0  0  0  0  0
    1.4070   -2.5170    0.1970 O   0  0  0  0  0  0  0  0  0  0  0  0
   -0.1760   -0.8550   -1.7930 C   0  0  0  0  0  0  0  0  0  0  0  0
    2.0880   -1.6750    4.7760 C   0  0  0  0  0  0  0  0  0  0  0  0
    3.1320    0.7970    5.5490 C   0  0  0  0  0  0  0  0  0  0  0  0
    2.6550   -3.0140    0.6680 C   0  0  0  0  0  0  0  0  0  0  0  0
   -0.0770    1.6510   -1.8390 C   0  0  0  0  0  0  0  0  0  0  0  0
    0.5270    0.3640   -2.3870 C   0  0  0  0  0  0  0  0  0  0  0  0
    2.6960   -4.5170    0.4800 C   0  0  0  0  0  0  0  0  0  0  0  0
    3.1610   -1.6160    5.6650 C   0  0  0  0  0  0  0  0  0  0  0  0
    3.6810   -0.3830    6.0510 C   0  0  0  0  0  0  0  0  0  0  0  0
   -0.8480   -1.6140    0.1230 H   0  0  0  0  0  0  0  0  0  0  0  0
    0.0460   -1.5050    3.0720 H   0  0  0  0  0  0  0  0  0  0  0  0
   -0.0080    2.7910    2.8640 H   0  0  0  0  0  0  0  0  0  0  0  0
    1.8960    2.8860    4.4420 H   0  0  0  0  0  0  0  0  0  0  0  0
    0.9840    1.6990    0.0270 H   0  0  0  0  0  0  0  0  0  0  0  0
   -0.5680    2.5690    0.0390 H   0  0  0  0  0  0  0  0  0  0  0  0
   -1.2070   -0.8720   -2.1480 H   0  0  0  0  0  0  0  0  0  0  0  0
    0.3390   -1.7540   -2.1310 H   0  0  0  0  0  0  0  0  0  0  0  0
    1.6870   -2.6330    4.4810 H   0  0  0  0  0  0  0  0  0  0  0  0
    3.5400    1.7510    5.8510 H   0  0  0  0  0  0  0  0  0  0  0  0
    2.7660   -2.7760    1.7260 H   0  0  0  0  0  0  0  0  0  0  0  0
    3.4670   -2.5540    0.1040 H   0  0  0  0  0  0  0  0  0  0  0  0
    0.4930    2.4990   -2.2180 H   0  0  0  0  0  0  0  0  0  0  0  0
   -1.1110    1.7280   -2.1760 H   0  0  0  0  0  0  0  0  0  0  0  0
    0.4150    0.3490   -3.4710 H   0  0  0  0  0  0  0  0  0  0  0  0
    1.5860    0.3270   -2.1300 H   0  0  0  0  0  0  0  0  0  0  0  0
    1.8840   -4.9760    1.0440 H   0  0  0  0  0  0  0  0  0  0  0  0
    3.6500   -4.9020    0.8390 H   0  0  0  0  0  0  0  0  0  0  0  0
    2.5830   -4.7540   -0.5780 H   0  0  0  0  0  0  0  0  0  0  0  0
    3.5890   -2.5280    6.0550 H   0  0  0  0  0  0  0  0  0  0  0  0
    4.5110   -0.3400    6.7410 H   0  0  0  0  0  0  0  0  0  0  0  0
  1  2  1  0  0  0  0
  1  4  1  0  0  0  0
  1  6  2  0  0  0  0
  1  7  2  0  0  0  0
  2  3  1  0  0  0  0
  2 14  1  0  0  0  0
  3  5  1  0  0  0  0
  3 16  1  0  0  0  0
  3 25  1  1  0  0  0
  4  8  2  0  0  0  0
  4 10  1  0  0  0  0
  5 11  2  0  0  0  0
  5 15  1  0  0  0  0
  8  9  1  0  0  0  0
  8 26  1  0  0  0  0
  9 12  2  0  0  0  0
  9 17  1  0  0  0  0
 10 13  2  0  0  0  0
 10 27  1  0  0  0  0
 12 13  1  0  0  0  0
 12 18  1  0  0  0  0
 13 28  1  0  0  0  0
 14 20  1  0  0  0  0
 14 29  1  0  0  0  0
 14 30  1  0  0  0  0
 15 19  1  0  0  0  0
 16 21  1  0  0  0  0
 16 31  1  0  0  0  0
 16 32  1  0  0  0  0
 17 23  2  0  0  0  0
 17 33  1  0  0  0  0
 18 24  2  0  0  0  0
 18 34  1  0  0  0  0
 19 22  1  0  0  0  0
 19 35  1  0  0  0  0
 19 36  1  0  0  0  0
 20 21  1  0  0  0  0
 20 37  1  0  0  0  0
 20 38  1  0  0  0  0
 21 39  1  0  0  0  0
 21 40  1  0  0  0  0
 22 41  1  0  0  0  0
 22 42  1  0  0  0  0
 22 43  1  0  0  0  0
 23 24  1  0  0  0  0
 23 44  1  0  0  0  0
 24 45  1  0  0  0  0
M  END
>  <$CLUSTER>
718

>  <INDEX>
471448

$$$$
Maybridge ML 00307
 OpenBabel04062209303D

 32 33  0  0  0  0  0  0  0  0999 V2000
   -0.7780   -0.1430   -2.2720 C   0  0  0  0  0  0  0  0  0  0  0  0
    0.1090    0.2820   -0.0900 N   0  0  0  0  0  0  0  0  0  0  0  0
   -1.9330   -0.8900   -4.3070 N   0  0  0  0  0  0  0  0  0  0  0  0
   -1.6810   -0.9570   -2.9100 N   0  0  0  0  0  0  0  0  0  0  0  0
   -0.7480   -0.4540   -0.8460 N   0  0  0  0  0  0  0  0  0  0  0  0
   -0.1380    0.6800   -2.8520 O   0  0  0  0  0  0  0  0  0  0  0  0
    0.2540   -0.1830    1.1150 C   0  0  0  0  0  0  0  0  0  0  0  0
   -2.9240   -1.5210   -4.7240 C   0  0  0  0  0  0  0  0  0  0  0  0
    1.2010   -0.1220    3.3150 N   0  0  0  0  0  0  0  0  0  0  0  0
   -4.3920   -2.2240   -6.5070 N   0  0  0  0  0  0  0  0  0  0  0  0
   -3.2660   -1.4790   -6.1830 C   0  0  0  0  0  0  0  0  0  0  0  0
    1.1640    0.4980    2.0920 C   0  0  0  0  0  0  0  0  0  0  0  0
    2.0100    0.4540    4.2380 C   0  0  0  0  0  0  0  0  0  0  0  0
   -4.7480   -2.2210   -7.8160 C   0  0  0  0  0  0  0  0  0  0  0  0
    1.8760    1.6250    1.7650 C   0  0  0  0  0  0  0  0  0  0  0  0
   -2.5370   -0.7710   -7.1020 C   0  0  0  0  0  0  0  0  0  0  0  0
    2.7680    1.5950    4.0000 C   0  0  0  0  0  0  0  0  0  0  0  0
   -4.0590   -1.5290   -8.8050 C   0  0  0  0  0  0  0  0  0  0  0  0
    2.6970    2.1870    2.7410 C   0  0  0  0  0  0  0  0  0  0  0  0
   -2.9350   -0.7920   -8.4380 C   0  0  0  0  0  0  0  0  0  0  0  0
   -2.1900   -1.6350   -2.3610 H   0  0  0  0  0  0  0  0  0  0  0  0
   -1.3310   -1.1750   -0.4440 H   0  0  0  0  0  0  0  0  0  0  0  0
   -0.2860   -1.0690    1.4150 H   0  0  0  0  0  0  0  0  0  0  0  0
   -3.5320   -2.0940   -4.0390 H   0  0  0  0  0  0  0  0  0  0  0  0
    2.0690    0.0000    5.2160 H   0  0  0  0  0  0  0  0  0  0  0  0
   -5.6190   -2.7900   -8.1070 H   0  0  0  0  0  0  0  0  0  0  0  0
    1.8020    2.0630    0.7810 H   0  0  0  0  0  0  0  0  0  0  0  0
   -1.6690   -0.2060   -6.7970 H   0  0  0  0  0  0  0  0  0  0  0  0
    3.3970    2.0120    4.7730 H   0  0  0  0  0  0  0  0  0  0  0  0
   -4.3870   -1.5620   -9.8330 H   0  0  0  0  0  0  0  0  0  0  0  0
    3.2730    3.0740    2.5230 H   0  0  0  0  0  0  0  0  0  0  0  0
   -2.3770   -0.2420   -9.1820 H   0  0  0  0  0  0  0  0  0  0  0  0
  1  4  1  0  0  0  0
  1  5  1  0  0  0  0
  1  6  2  0  0  0  0
  2  5  1  0  0  0  0
  2  7  2  0  0  0  0
  3  4  1  0  0  0  0
  3  8  2  0  0  0  0
  4 21  1  0  0  0  0
  5 22  1  0  0  0  0
  7 12  1  0  0  0  0
  7 23  1  0  0  0  0
  8 11  1  0  0  0  0
  8 24  1  0  0  0  0
  9 12  2  0  0  0  0
  9 13  1  0  0  0  0
 10 11  2  0  0  0  0
 10 14  1  0  0  0  0
 11 16  1  0  0  0  0
 12 15  1  0  0  0  0
 13 17  2  0  0  0  0
 13 25  1  0  0  0  0
 14 18  2  0  0  0  0
 14 26  1  0  0  0  0
 15 19  2  0  0  0  0
 15 27  1  0  0  0  0
 16 20  2  0  0  0  0
 16 28  1  0  0  0  0
 17 19  1  0  0  0  0
 17 29  1  0  0  0  0
 18 20  1  0  0  0  0
 18 30  1  0  0  0  0
 19 31  1  0  0  0  0
 20 32  1  0  0  0  0
M  END
>  <$CLUSTER>
872

>  <INDEX>
560500

$$$$
Bionet 10X-0864
 OpenBabel04062209303D

 43 45  0  0  0  0  0  0  0  0999 V2000
   -4.4790   -3.2510   -6.4050 S   0  0  0  0  0  0  0  0  0  0  0  0
   -4.1080   -4.8820   -6.3650 N   0  0  0  0  0  0  0  0  0  0  0  0
    0.9160    0.2420    1.7950 C   0  0  0  0  0  0  0  0  0  0  0  0
    0.3990    1.3830    1.3990 N   0  0  0  0  0  0  0  0  0  0  0  0
    0.8630   -1.0510    0.6700 S   0  0  0  0  0  0  0  0  0  0  0  0
    0.0800   -0.0170   -0.4540 C   0  0  0  0  0  0  0  0  0  0  0  0
   -3.5990   -2.6040   -5.0240 C   0  0  0  0  0  0  0  0  0  0  0  0
   -0.0800    1.2330    0.1120 C   0  0  0  0  0  0  0  0  0  0  0  0
   -5.9030   -3.1190   -6.1440 O   0  0  0  0  0  0  0  0  0  0  0  0
   -3.9110   -2.7000   -7.6220 O   0  0  0  0  0  0  0  0  0  0  0  0
   -2.7140   -5.2860   -6.6910 C   0  0  0  0  0  0  0  0  0  0  0  0
   -4.6610   -5.6970   -5.2500 C   0  0  0  0  0  0  0  0  0  0  0  0
   -4.2030   -2.5620   -3.7700 C   0  0  0  0  0  0  0  0  0  0  0  0
   -2.3070   -2.1090   -5.1890 C   0  0  0  0  0  0  0  0  0  0  0  0
    1.5840    0.1020    3.3380 Cl  0  0  0  0  0  0  0  0  0  0  0  0
   -0.3180   -0.4960   -1.8020 C   0  0  0  0  0  0  0  0  0  0  0  0
   -1.6350   -1.0150   -1.6870 O   0  0  0  0  0  0  0  0  0  0  0  0
   -2.2150   -1.5230   -2.8400 C   0  0  0  0  0  0  0  0  0  0  0  0
   -3.5130   -2.0230   -2.6830 C   0  0  0  0  0  0  0  0  0  0  0  0
   -1.6150   -1.5690   -4.1010 C   0  0  0  0  0  0  0  0  0  0  0  0
   -2.5910   -6.7790   -6.9850 C   0  0  0  0  0  0  0  0  0  0  0  0
   -4.5710   -7.1950   -5.5190 C   0  0  0  0  0  0  0  0  0  0  0  0
   -3.1410   -7.6340   -5.8420 C   0  0  0  0  0  0  0  0  0  0  0  0
   -3.0860   -9.1190   -6.1890 C   0  0  0  0  0  0  0  0  0  0  0  0
   -0.5520    2.0450   -0.4210 H   0  0  0  0  0  0  0  0  0  0  0  0
   -2.0720   -5.0430   -5.8440 H   0  0  0  0  0  0  0  0  0  0  0  0
   -2.3850   -4.7290   -7.5680 H   0  0  0  0  0  0  0  0  0  0  0  0
   -5.7080   -5.4300   -5.1080 H   0  0  0  0  0  0  0  0  0  0  0  0
   -4.1020   -5.4710   -4.3420 H   0  0  0  0  0  0  0  0  0  0  0  0
   -5.2040   -2.9460   -3.6390 H   0  0  0  0  0  0  0  0  0  0  0  0
   -1.8380   -2.1430   -6.1610 H   0  0  0  0  0  0  0  0  0  0  0  0
    0.3640   -1.2770   -2.1380 H   0  0  0  0  0  0  0  0  0  0  0  0
   -0.3020    0.3300   -2.5130 H   0  0  0  0  0  0  0  0  0  0  0  0
   -3.9850   -1.9910   -1.7120 H   0  0  0  0  0  0  0  0  0  0  0  0
   -0.6140   -1.1860   -4.2350 H   0  0  0  0  0  0  0  0  0  0  0  0
   -1.5390   -7.0230   -7.1330 H   0  0  0  0  0  0  0  0  0  0  0  0
   -3.1480   -7.0060   -7.8940 H   0  0  0  0  0  0  0  0  0  0  0  0
   -5.2140   -7.4400   -6.3640 H   0  0  0  0  0  0  0  0  0  0  0  0
   -4.9130   -7.7330   -4.6350 H   0  0  0  0  0  0  0  0  0  0  0  0
   -2.5180   -7.4870   -4.9600 H   0  0  0  0  0  0  0  0  0  0  0  0
   -3.6990   -9.3090   -7.0700 H   0  0  0  0  0  0  0  0  0  0  0  0
   -3.4650   -9.7020   -5.3500 H   0  0  0  0  0  0  0  0  0  0  0  0
   -2.0550   -9.4060   -6.3950 H   0  0  0  0  0  0  0  0  0  0  0  0
  1  2  1  0  0  0  0
  1  7  1  0  0  0  0
  1  9  2  0  0  0  0
  1 10  2  0  0  0  0
  2 11  1  0  0  0  0
  2 12  1  0  0  0  0
  3  4  2  0  0  0  0
  3  5  1  0  0  0  0
  3 15  1  0  0  0  0
  4  8  1  0  0  0  0
  5  6  1  0  0  0  0
  6  8  2  0  0  0  0
  6 16  1  0  0  0  0
  7 13  2  0  0  0  0
  7 14  1  0  0  0  0
  8 25  1  0  0  0  0
 11 21  1  0  0  0  0
 11 26  1  0  0  0  0
 11 27  1  0  0  0  0
 12 22  1  0  0  0  0
 12 28  1  0  0  0  0
 12 29  1  0  0  0  0
 13 19  1  0  0  0  0
 13 30  1  0  0  0  0
 14 20  2  0  0  0  0
 14 31  1  0  0  0  0
 16 17  1  0  0  0  0
 16 32  1  0  0  0  0
 16 33  1  0  0  0  0
 17 18  1  0  0  0  0
 18 19  2  0  0  0  0
 18 20  1  0  0  0  0
 19 34  1  0  0  0  0
 20 35  1  0  0  0  0
 21 23  1  0  0  0  0
 21 36  1  0  0  0  0
 21 37  1  0  0  0  0
 22 23  1  0  0  0  0
 22 38  1  0  0  0  0
 22 39  1  0  0  0  0
 23 24  1  0  0  0  0
 23 40  1  0  0  0  0
 24 41  1  0  0  0  0
 24 42  1  0  0  0  0
 24 43  1  0  0  0  0
M  END
>  <$CLUSTER>
19

>  <INDEX>
8245

$$$$
Tripos 1526-22023
 OpenBabel04062209303D

 49 50  0  0  0  0  0  0  0  0999 V2000
    2.3330   -2.6960   -0.4950 C   0  0  0  0  0  0  0  0  0  0  0  0
   -1.1630    1.3380    0.4970 N   0  0  0  0  0  0  0  0  0  0  0  0
   -1.4410    2.6290    0.7890 C   0  0  0  0  0  0  0  0  0  0  0  0
    3.6150   -2.8430   -0.9050 N   0  0  0  0  0  0  0  0  0  0  0  0
    4.5220   -2.0940   -1.7180 C   0  0  0  0  0  0  0  0  0  0  0  0
    1.8860   -1.4190   -0.6350 N   0  0  0  0  0  0  0  0  0  0  0  0
    5.9200   -2.3080   -1.6440 C   0  0  0  0  0  0  0  0  0  0  0  0
    1.4890   -4.0050    0.0980 S   0  0  0  0  0  0  0  0  0  0  0  0
   -0.8030    0.2860    1.4560 C   0  0  0  0  0  0  0  0  0  0  0  0
   -1.1890    0.8160   -0.8750 C   0  0  0  0  0  0  0  0  0  0  0  0
   -1.7400    3.5000   -0.0230 O   0  0  0  0  0  0  0  0  0  0  0  0
    6.7740   -1.5690   -2.4840 C   0  0  0  0  0  0  0  0  0  0  0  0
    4.0250   -1.1770   -2.6550 C   0  0  0  0  0  0  0  0  0  0  0  0
    0.1530    0.2080   -1.2790 C   0  0  0  0  0  0  0  0  0  0  0  0
    0.5520   -0.3410    1.1330 C   0  0  0  0  0  0  0  0  0  0  0  0
    0.5640   -0.8880   -0.2950 C   0  0  0  0  0  0  0  0  0  0  0  0
   -1.3620    2.9150    2.1170 O   0  0  0  0  0  0  0  0  0  0  0  0
    6.2610   -0.6410   -3.3900 C   0  0  0  0  0  0  0  0  0  0  0  0
    4.8870   -0.4490   -3.4780 C   0  0  0  0  0  0  0  0  0  0  0  0
    7.0070    0.1190   -4.2550 O   0  0  0  0  0  0  0  0  0  0  0  0
    6.5350   -3.2970   -0.6860 C   0  0  0  0  0  0  0  0  0  0  0  0
   -1.6300    4.2280    2.5580 C   0  0  0  0  0  0  0  0  0  0  0  0
    8.4190   -0.0450   -4.2090 C   0  0  0  0  0  0  0  0  0  0  0  0
   -1.4780    4.2890    4.0650 C   0  0  0  0  0  0  0  0  0  0  0  0
    4.0340   -3.6900   -0.5490 H   0  0  0  0  0  0  0  0  0  0  0  0
    2.5450   -0.7570   -1.0200 H   0  0  0  0  0  0  0  0  0  0  0  0
   -1.5660   -0.4920    1.4290 H   0  0  0  0  0  0  0  0  0  0  0  0
   -0.7610    0.7200    2.4550 H   0  0  0  0  0  0  0  0  0  0  0  0
   -1.4260    1.6320   -1.5580 H   0  0  0  0  0  0  0  0  0  0  0  0
   -1.9590    0.0480   -0.9450 H   0  0  0  0  0  0  0  0  0  0  0  0
    7.8410   -1.7230   -2.4260 H   0  0  0  0  0  0  0  0  0  0  0  0
    2.9580   -1.0310   -2.7420 H   0  0  0  0  0  0  0  0  0  0  0  0
    0.9130    0.9890   -1.2840 H   0  0  0  0  0  0  0  0  0  0  0  0
    0.0660   -0.2210   -2.2770 H   0  0  0  0  0  0  0  0  0  0  0  0
    0.7450   -1.1560    1.8310 H   0  0  0  0  0  0  0  0  0  0  0  0
    1.3300    0.4160    1.2340 H   0  0  0  0  0  0  0  0  0  0  0  0
   -0.1540   -1.7050   -0.3620 H   0  0  0  0  0  0  0  0  0  0  0  0
    4.4860    0.2640   -4.1830 H   0  0  0  0  0  0  0  0  0  0  0  0
    5.7470   -3.7840   -0.1110 H   0  0  0  0  0  0  0  0  0  0  0  0
    7.2100   -2.7750   -0.0080 H   0  0  0  0  0  0  0  0  0  0  0  0
    7.0930   -4.0470   -1.2470 H   0  0  0  0  0  0  0  0  0  0  0  0
   -2.6480    4.5040    2.2830 H   0  0  0  0  0  0  0  0  0  0  0  0
   -0.9280    4.9190    2.0930 H   0  0  0  0  0  0  0  0  0  0  0  0
    8.8850    0.6130   -4.9420 H   0  0  0  0  0  0  0  0  0  0  0  0
    8.6720   -1.0800   -4.4370 H   0  0  0  0  0  0  0  0  0  0  0  0
    8.7820    0.2060   -3.2120 H   0  0  0  0  0  0  0  0  0  0  0  0
   -2.1810    3.5970    4.5290 H   0  0  0  0  0  0  0  0  0  0  0  0
   -1.6840    5.3020    4.4100 H   0  0  0  0  0  0  0  0  0  0  0  0
   -0.4600    4.0110    4.3390 H   0  0  0  0  0  0  0  0  0  0  0  0
  1  4  1  0  0  0  0
  1  6  1  0  0  0  0
  1  8  2  0  0  0  0
  2  3  1  0  0  0  0
  2  9  1  0  0  0  0
  2 10  1  0  0  0  0
  3 11  2  0  0  0  0
  3 17  1  0  0  0  0
  4  5  1  0  0  0  0
  4 25  1  0  0  0  0
  5  7  2  0  0  0  0
  5 13  1  0  0  0  0
  6 16  1  0  0  0  0
  6 26  1  0  0  0  0
  7 12  1  0  0  0  0
  7 21  1  0  0  0  0
  9 15  1  0  0  0  0
  9 27  1  0  0  0  0
  9 28  1  0  0  0  0
 10 14  1  0  0  0  0
 10 29  1  0  0  0  0
 10 30  1  0  0  0  0
 12 18  2  0  0  0  0
 12 31  1  0  0  0  0
 13 19  2  0  0  0  0
 13 32  1  0  0  0  0
 14 16  1  0  0  0  0
 14 33  1  0  0  0  0
 14 34  1  0  0  0  0
 15 16  1  0  0  0  0
 15 35  1  0  0  0  0
 15 36  1  0  0  0  0
 16 37  1  0  0  0  0
 17 22  1  0  0  0  0
 18 19  1  0  0  0  0
 18 20  1  0  0  0  0
 19 38  1  0  0  0  0
 20 23  1  0  0  0  0
 21 39  1  0  0  0  0
 21 40  1  0  0  0  0
 21 41  1  0  0  0  0
 22 24  1  0  0  0  0
 22 42  1  0  0  0  0
 22 43  1  0  0  0  0
 23 44  1  0  0  0  0
 23 45  1  0  0  0  0
 23 46  1  0  0  0  0
 24 47  1  0  0  0  0
 24 48  1  0  0  0  0
 24 49  1  0  0  0  0
M  END
>  <$CLUSTER>
683

>  <INDEX>
448656

$$$$
InterBioScreen STOCK5S-13559
 OpenBabel04062209303D

 39 41  0  0  0  0  0  0  0  0999 V2000
    1.4240   -0.4240   -0.7690 S   0  0  0  0  0  0  0  0  0  0  0  0
   -0.2240   -0.4330   -0.3160 C   0  0  0  0  0  0  0  0  0  0  0  0
    1.2360   -2.0680   -1.2070 C   0  0  0  0  0  0  0  0  0  0  0  0
    0.0280   -2.5490   -1.0170 N   0  0  0  0  0  0  0  0  0  0  0  0
   -0.8630    0.6830    0.1920 N   0  0  0  0  0  0  0  0  0  0  0  0
   -0.8240   -1.5920   -0.4960 N   0  0  0  0  0  0  0  0  0  0  0  0
   -0.3020    1.9340    0.4100 C   0  0  0  0  0  0  0  0  0  0  0  0
   -1.3220    2.8910    0.9770 C   0  0  0  0  0  0  0  0  0  0  0  0
   -2.4130    2.5240    1.7300 C   0  0  0  0  0  0  0  0  0  0  0  0
   -3.2890    3.4850    2.2390 C   0  0  0  0  0  0  0  0  0  0  0  0
    2.3600   -2.8810   -1.7610 C   0  0  0  0  0  0  0  0  0  0  0  0
    0.8500    2.3010    0.2020 O   0  0  0  0  0  0  0  0  0  0  0  0
   -3.0580    4.8400    2.0050 C   0  0  0  0  0  0  0  0  0  0  0  0
   -1.0670    4.2810    0.7550 C   0  0  0  0  0  0  0  0  0  0  0  0
   -1.9460    5.2370    1.2650 C   0  0  0  0  0  0  0  0  0  0  0  0
    3.6560   -2.3740   -1.9550 C   0  0  0  0  0  0  0  0  0  0  0  0
    2.1240   -4.2240   -2.1100 C   0  0  0  0  0  0  0  0  0  0  0  0
    4.4170   -4.5040   -2.8160 C   0  0  0  0  0  0  0  0  0  0  0  0
   -4.4170    3.1880    2.9890 O   0  0  0  0  0  0  0  0  0  0  0  0
    4.6740   -3.1800   -2.4780 C   0  0  0  0  0  0  0  0  0  0  0  0
    3.1420   -5.0270   -2.6320 C   0  0  0  0  0  0  0  0  0  0  0  0
    5.6670   -5.4680   -3.4500 Cl  0  0  0  0  0  0  0  0  0  0  0  0
   -3.9690    5.7170    2.5550 O   0  0  0  0  0  0  0  0  0  0  0  0
   -4.6920    1.8160    3.2460 C   0  0  0  0  0  0  0  0  0  0  0  0
   -3.7550    7.1060    2.3370 C   0  0  0  0  0  0  0  0  0  0  0  0
   -1.8390    0.5770    0.4290 H   0  0  0  0  0  0  0  0  0  0  0  0
   -2.5950    1.4780    1.9300 H   0  0  0  0  0  0  0  0  0  0  0  0
   -0.1970    4.5890    0.1940 H   0  0  0  0  0  0  0  0  0  0  0  0
   -1.7640    6.2860    1.0860 H   0  0  0  0  0  0  0  0  0  0  0  0
    3.8700   -1.3470   -1.6970 H   0  0  0  0  0  0  0  0  0  0  0  0
    1.1380   -4.6420   -1.9720 H   0  0  0  0  0  0  0  0  0  0  0  0
    5.6640   -2.7720   -2.6200 H   0  0  0  0  0  0  0  0  0  0  0  0
    2.9380   -6.0550   -2.8930 H   0  0  0  0  0  0  0  0  0  0  0  0
   -5.6010    1.7330    3.8420 H   0  0  0  0  0  0  0  0  0  0  0  0
   -3.8580    1.3740    3.7920 H   0  0  0  0  0  0  0  0  0  0  0  0
   -4.8270    1.2890    2.3010 H   0  0  0  0  0  0  0  0  0  0  0  0
   -4.5450    7.6760    2.8250 H   0  0  0  0  0  0  0  0  0  0  0  0
   -3.7660    7.3120    1.2670 H   0  0  0  0  0  0  0  0  0  0  0  0
   -2.7890    7.3940    2.7520 H   0  0  0  0  0  0  0  0  0  0  0  0
  1  2  1  0  0  0  0
  1  3  1  0  0  0  0
  2  5  1  0  0  0  0
  2  6  2  0  0  0  0
  3  4  2  0  0  0  0
  3 11  1  0  0  0  0
  4  6  1  0  0  0  0
  5  7  1  0  0  0  0
  5 26  1  0  0  0  0
  7  8  1  0  0  0  0
  7 12  2  0  0  0  0
  8  9  1  0  0  0  0
  8 14  2  0  0  0  0
  9 10  2  0  0  0  0
  9 27  1  0  0  0  0
 10 13  1  0  0  0  0
 10 19  1  0  0  0  0
 11 16  2  0  0  0  0
 11 17  1  0  0  0  0
 13 15  2  0  0  0  0
 13 23  1  0  0  0  0
 14 15  1  0  0  0  0
 14 28  1  0  0  0  0
 15 29  1  0  0  0  0
 16 20  1  0  0  0  0
 16 30  1  0  0  0  0
 17 21  2  0  0  0  0
 17 31  1  0  0  0  0
 18 20  2  0  0  0  0
 18 21  1  0  0  0  0
 18 22  1  0  0  0  0
 19 24  1  0  0  0  0
 20 32  1  0  0  0  0
 21 33  1  0  0  0  0
 23 25  1  0  0  0  0
 24 34  1  0  0  0  0
 24 35  1  0  0  0  0
 24 36  1  0  0  0  0
 25 37  1  0  0  0  0
 25 38  1  0  0  0  0
 25 39  1  0  0  0  0
M  END
>  <$CLUSTER>
563

>  <INDEX>
366816

$$$$
Otava 0120630218
 OpenBabel04062209303D

 34 35  0  0  1  0  0  0  0  0999 V2000
    1.2820    0.5840   -1.0500 C   0  0  0  0  0  0  0  0  0  0  0  0
    0.2440   -0.0850   -0.2560 C   0  0  0  0  0  0  0  0  0  0  0  0
    2.5260    0.0500   -0.9470 N   0  0  0  0  0  0  0  0  0  0  0  0
    3.7140    0.5230   -1.6380 C   0  0  1  0  0  0  0  0  0  0  0  0
    4.9700    0.2790   -0.8060 C   0  0  0  0  0  0  0  0  0  0  0  0
   -0.5510    0.6010    0.6620 C   0  0  0  0  0  0  0  0  0  0  0  0
    1.0180    1.5420   -1.7690 O   0  0  0  0  0  0  0  0  0  0  0  0
    3.8280   -0.1420   -3.0060 C   0  0  0  0  0  0  0  0  0  0  0  0
    5.7130   -0.7390   -1.0200 O   0  0  0  0  0  0  0  0  0  0  0  0
    5.2280    1.1630    0.1220 O   0  5  0  0  0  0  0  0  0  0  0  0
   -0.3210    2.4400    1.0670 Br  0  0  0  0  0  0  0  0  0  0  0  0
    4.9560    0.3650   -3.8860 C   0  0  0  0  0  0  0  0  0  0  0  0
    0.0440   -1.4570   -0.4670 C   0  0  0  0  0  0  0  0  0  0  0  0
   -1.5470   -0.0870    1.3670 C   0  0  0  0  0  0  0  0  0  0  0  0
    6.2250   -0.1960   -3.7740 C   0  0  0  0  0  0  0  0  0  0  0  0
    4.7480    1.4710   -4.7060 C   0  0  0  0  0  0  0  0  0  0  0  0
   -0.9490   -2.1370    0.2380 C   0  0  0  0  0  0  0  0  0  0  0  0
   -1.7450   -1.4520    1.1530 C   0  0  0  0  0  0  0  0  0  0  0  0
    5.8010    1.9750   -5.4710 C   0  0  0  0  0  0  0  0  0  0  0  0
    7.2770    0.3100   -4.5390 C   0  0  0  0  0  0  0  0  0  0  0  0
    7.0640    1.3940   -5.3870 C   0  0  0  0  0  0  0  0  0  0  0  0
    2.6360   -0.7470   -0.3360 H   0  0  0  0  0  0  0  0  0  0  0  0
    3.6200    1.5990   -1.7830 H   0  0  0  0  0  0  0  0  0  0  0  0
    2.8900    0.0180   -3.5370 H   0  0  0  0  0  0  0  0  0  0  0  0
    3.9790   -1.2100   -2.8490 H   0  0  0  0  0  0  0  0  0  0  0  0
    0.6600   -1.9880   -1.1770 H   0  0  0  0  0  0  0  0  0  0  0  0
   -2.1640    0.4410    2.0790 H   0  0  0  0  0  0  0  0  0  0  0  0
    6.3950   -1.0200   -3.0970 H   0  0  0  0  0  0  0  0  0  0  0  0
    3.7750    1.9370   -4.7500 H   0  0  0  0  0  0  0  0  0  0  0  0
   -1.1010   -3.1940    0.0750 H   0  0  0  0  0  0  0  0  0  0  0  0
   -2.5160   -1.9770    1.6970 H   0  0  0  0  0  0  0  0  0  0  0  0
    5.6360    2.8160   -6.1280 H   0  0  0  0  0  0  0  0  0  0  0  0
    8.2570   -0.1390   -4.4730 H   0  0  0  0  0  0  0  0  0  0  0  0
    7.8780    1.7840   -5.9800 H   0  0  0  0  0  0  0  0  0  0  0  0
  1  2  1  0  0  0  0
  1  3  1  0  0  0  0
  1  7  2  0  0  0  0
  2  6  2  0  0  0  0
  2 13  1  0  0  0  0
  3  4  1  0  0  0  0
  3 22  1  0  0  0  0
  4  5  1  0  0  0  0
  4  8  1  0  0  0  0
  4 23  1  6  0  0  0
  5  9  2  0  0  0  0
  5 10  1  0  0  0  0
  6 11  1  0  0  0  0
  6 14  1  0  0  0  0
  8 12  1  0  0  0  0
  8 24  1  0  0  0  0
  8 25  1  0  0  0  0
 12 15  1  0  0  0  0
 12 16  2  0  0  0  0
 13 17  2  0  0  0  0
 13 26  1  0  0  0  0
 14 18  2  0  0  0  0
 14 27  1  0  0  0  0
 15 20  2  0  0  0  0
 15 28  1  0  0  0  0
 16 19  1  0  0  0  0
 16 29  1  0  0  0  0
 17 18  1  0  0  0  0
 17 30  1  0  0  0  0
 18 31  1  0  0  0  0
 19 21  2  0  0  0  0
 19 32  1  0  0  0  0
 20 21  1  0  0  0  0
 20 33  1  0  0  0  0
 21 34  1  0  0  0  0
M  CHG  1  10  -1
M  END
>  <$CLUSTER>
860

>  <INDEX>
431950

$$$$
Asinex ASN 02617640
 OpenBabel04062209303D

 46 48  0  0  0  0  0  0  0  0999 V2000
    0.0050   -0.0250   -0.0460 C   0  0  0  0  0  0  0  0  0  0  0  0
   -2.1860   -4.7180    1.2650 N   0  0  0  0  0  0  0  0  0  0  0  0
    1.3250   -0.3190   -0.3340 C   0  0  0  0  0  0  0  0  0  0  0  0
   -0.9360   -5.1390    0.9180 C   0  0  0  0  0  0  0  0  0  0  0  0
   -0.0730   -4.1660    1.1000 N   0  0  0  0  0  0  0  0  0  0  0  0
   -2.0020   -3.4520    1.6570 C   0  0  0  0  0  0  0  0  0  0  0  0
   -0.6730    1.0080   -1.2190 S   0  0  0  0  0  0  0  0  0  0  0  0
   -0.7700   -3.0770    1.5790 N   0  0  0  0  0  0  0  0  0  0  0  0
    1.7720    0.3150   -1.5300 C   0  0  0  0  0  0  0  0  0  0  0  0
    0.7810    1.0700   -2.1140 C   0  0  0  0  0  0  0  0  0  0  0  0
   -0.7300   -0.4810    1.0410 N   0  0  0  0  0  0  0  0  0  0  0  0
    2.1530   -1.1640    0.4740 C   0  0  0  0  0  0  0  0  0  0  0  0
    2.8210   -1.8480    1.1300 N   0  0  0  0  0  0  0  0  0  0  0  0
   -3.3870   -2.4290    2.2280 S   0  0  0  0  0  0  0  0  0  0  0  0
   -2.0580   -0.1860    1.3300 C   0  0  0  0  0  0  0  0  0  0  0  0
   -0.5350   -6.4720    0.3670 C   0  0  0  0  0  0  0  0  0  0  0  0
   -2.8390    0.5220    0.7030 O   0  0  0  0  0  0  0  0  0  0  0  0
   -2.4970   -0.8730    2.6000 C   0  0  0  0  0  0  0  0  0  0  0  0
   -1.2560   -7.0900   -0.6640 C   0  0  0  0  0  0  0  0  0  0  0  0
    0.5930   -7.1230    0.8860 C   0  0  0  0  0  0  0  0  0  0  0  0
   -3.3880   -5.5090    1.2000 C   0  0  0  0  0  0  0  0  0  0  0  0
    3.1070    0.1640   -2.0390 C   0  0  0  0  0  0  0  0  0  0  0  0
    0.9790   -8.3750    0.4010 C   0  0  0  0  0  0  0  0  0  0  0  0
   -0.8680   -8.3420   -1.1490 C   0  0  0  0  0  0  0  0  0  0  0  0
    0.2460   -8.9840   -0.6150 C   0  0  0  0  0  0  0  0  0  0  0  0
    0.9100    1.8380   -3.3340 C   0  0  0  0  0  0  0  0  0  0  0  0
    0.6530  -10.3250   -1.1330 C   0  0  0  0  0  0  0  0  0  0  0  0
   -0.2500   -1.0900    1.6890 H   0  0  0  0  0  0  0  0  0  0  0  0
   -1.6190   -1.1000    3.2050 H   0  0  0  0  0  0  0  0  0  0  0  0
   -3.1580   -0.2080    3.1550 H   0  0  0  0  0  0  0  0  0  0  0  0
   -2.1180   -6.5950   -1.0870 H   0  0  0  0  0  0  0  0  0  0  0  0
    1.1690   -6.6520    1.6690 H   0  0  0  0  0  0  0  0  0  0  0  0
   -3.1480   -6.5050    0.8280 H   0  0  0  0  0  0  0  0  0  0  0  0
   -4.1010   -5.0320    0.5270 H   0  0  0  0  0  0  0  0  0  0  0  0
   -3.8250   -5.5890    2.1950 H   0  0  0  0  0  0  0  0  0  0  0  0
    3.6770   -0.4880   -1.3770 H   0  0  0  0  0  0  0  0  0  0  0  0
    3.5890    1.1400   -2.0900 H   0  0  0  0  0  0  0  0  0  0  0  0
    3.0680   -0.2750   -3.0360 H   0  0  0  0  0  0  0  0  0  0  0  0
    1.8450   -8.8710    0.8140 H   0  0  0  0  0  0  0  0  0  0  0  0
   -1.4340   -8.8120   -1.9400 H   0  0  0  0  0  0  0  0  0  0  0  0
   -0.0360    2.3330   -3.5540 H   0  0  0  0  0  0  0  0  0  0  0  0
    1.1710    1.1720   -4.1570 H   0  0  0  0  0  0  0  0  0  0  0  0
    1.6920    2.5870   -3.2110 H   0  0  0  0  0  0  0  0  0  0  0  0
    1.5400  -10.6670   -0.5990 H   0  0  0  0  0  0  0  0  0  0  0  0
    0.8760  -10.2510   -2.1970 H   0  0  0  0  0  0  0  0  0  0  0  0
   -0.1600  -11.0350   -0.9800 H   0  0  0  0  0  0  0  0  0  0  0  0
  1  3  2  0  0  0  0
  1  7  1  0  0  0  0
  1 11  1  0  0  0  0
  2  4  1  0  0  0  0
  2  6  1  0  0  0  0
  2 21  1  0  0  0  0
  3  9  1  0  0  0  0
  3 12  1  0  0  0  0
  4  5  2  0  0  0  0
  4 16  1  0  0  0  0
  5  8  1  0  0  0  0
  6  8  2  0  0  0  0
  6 14  1  0  0  0  0
  7 10  1  0  0  0  0
  9 10  2  0  0  0  0
  9 22  1  0  0  0  0
 10 26  1  0  0  0  0
 11 15  1  0  0  0  0
 11 28  1  0  0  0  0
 12 13  3  0  0  0  0
 14 18  1  0  0  0  0
 15 17  2  0  0  0  0
 15 18  1  0  0  0  0
 16 19  1  0  0  0  0
 16 20  2  0  0  0  0
 18 29  1  0  0  0  0
 18 30  1  0  0  0  0
 19 24  2  0  0  0  0
 19 31  1  0  0  0  0
 20 23  1  0  0  0  0
 20 32  1  0  0  0  0
 21 33  1  0  0  0  0
 21 34  1  0  0  0  0
 21 35  1  0  0  0  0
 22 36  1  0  0  0  0
 22 37  1  0  0  0  0
 22 38  1  0  0  0  0
 23 25  2  0  0  0  0
 23 39  1  0  0  0  0
 24 25  1  0  0  0  0
 24 40  1  0  0  0  0
 25 27  1  0  0  0  0
 26 41  1  0  0  0  0
 26 42  1  0  0  0  0
 26 43  1  0  0  0  0
 27 44  1  0  0  0  0
 27 45  1  0  0  0  0
 27 46  1  0  0  0  0
M  END
>  <$CLUSTER>
241

>  <INDEX>
127199

$$$$
Chem T&I AMSACS-08601
 OpenBabel04062209303D

 42 44  0  0  0  0  0  0  0  0999 V2000
   -0.6650   -6.3630   -1.8330 S   0  0  0  0  0  0  0  0  0  0  0  0
   -1.3360    0.2740    0.6000 N   0  0  0  0  0  0  0  0  0  0  0  0
    0.7790    0.6060   -0.1760 C   0  0  0  0  0  0  0  0  0  0  0  0
   -0.1520   -0.2910    0.2860 N   0  0  0  0  0  0  0  0  0  0  0  0
    0.1480    1.8310   -0.1540 C   0  0  0  0  0  0  0  0  0  0  0  0
   -1.1450    1.5660    0.3300 C   0  0  0  0  0  0  0  0  0  0  0  0
    1.0980   -6.6390   -1.7950 C   0  0  0  0  0  0  0  0  0  0  0  0
    1.7290   -6.8070   -0.5640 C   0  0  0  0  0  0  0  0  0  0  0  0
   -1.1340   -6.8290   -3.1330 O   0  0  0  0  0  0  0  0  0  0  0  0
   -1.2190   -6.9500   -0.6160 O   0  0  0  0  0  0  0  0  0  0  0  0
   -0.7390   -4.7140   -1.7630 N   0  0  0  0  0  0  0  0  0  0  0  0
    3.1060   -7.0260   -0.5360 C   0  0  0  0  0  0  0  0  0  0  0  0
    1.8060   -6.6930   -2.9880 C   0  0  0  0  0  0  0  0  0  0  0  0
    3.8320   -7.0780   -1.7260 C   0  0  0  0  0  0  0  0  0  0  0  0
    3.1830   -6.9120   -2.9500 C   0  0  0  0  0  0  0  0  0  0  0  0
    0.7420    3.2580   -0.5830 Cl  0  0  0  0  0  0  0  0  0  0  0  0
    0.0050   -1.7220    0.4610 C   0  0  0  0  0  0  0  0  0  0  0  0
    2.1550    0.2390   -0.5900 C   0  0  0  0  0  0  0  0  0  0  0  0
   -0.4530   -2.5040   -0.7570 C   0  0  0  0  0  0  0  0  0  0  0  0
   -0.2990   -3.9950   -0.5750 C   0  0  0  0  0  0  0  0  0  0  0  0
    3.7830   -7.1970    0.7010 C   0  0  0  0  0  0  0  0  0  0  0  0
    5.2370   -7.3040   -1.6770 C   0  0  0  0  0  0  0  0  0  0  0  0
    5.1600   -7.4180    0.7340 C   0  0  0  0  0  0  0  0  0  0  0  0
    5.8860   -7.4710   -0.4530 C   0  0  0  0  0  0  0  0  0  0  0  0
   -1.9010    2.3250    0.4680 H   0  0  0  0  0  0  0  0  0  0  0  0
    1.1610   -6.7680    0.3540 H   0  0  0  0  0  0  0  0  0  0  0  0
   -1.7060   -4.4630   -1.9090 H   0  0  0  0  0  0  0  0  0  0  0  0
    1.2980   -6.5670   -3.9320 H   0  0  0  0  0  0  0  0  0  0  0  0
    3.7480   -6.9530   -3.8700 H   0  0  0  0  0  0  0  0  0  0  0  0
   -0.5850   -2.0370    1.3220 H   0  0  0  0  0  0  0  0  0  0  0  0
    1.0580   -1.9400    0.6420 H   0  0  0  0  0  0  0  0  0  0  0  0
    2.2970   -0.8350   -0.4680 H   0  0  0  0  0  0  0  0  0  0  0  0
    2.8750    0.7730    0.0290 H   0  0  0  0  0  0  0  0  0  0  0  0
    2.3040    0.5090   -1.6360 H   0  0  0  0  0  0  0  0  0  0  0  0
    0.1410   -2.1930   -1.6160 H   0  0  0  0  0  0  0  0  0  0  0  0
   -1.5040   -2.2810   -0.9420 H   0  0  0  0  0  0  0  0  0  0  0  0
    0.7500   -4.2250   -0.3870 H   0  0  0  0  0  0  0  0  0  0  0  0
   -0.8990   -4.3140    0.2770 H   0  0  0  0  0  0  0  0  0  0  0  0
    3.2260   -7.1550    1.6250 H   0  0  0  0  0  0  0  0  0  0  0  0
    5.8050   -7.3470   -2.5950 H   0  0  0  0  0  0  0  0  0  0  0  0
    5.6630   -7.5480    1.6810 H   0  0  0  0  0  0  0  0  0  0  0  0
    6.9520   -7.6410   -0.4260 H   0  0  0  0  0  0  0  0  0  0  0  0
  1  7  1  0  0  0  0
  1  9  2  0  0  0  0
  1 10  2  0  0  0  0
  1 11  1  0  0  0  0
  2  4  1  0  0  0  0
  2  6  2  0  0  0  0
  3  4  1  0  0  0  0
  3  5  2  0  0  0  0
  3 18  1  0  0  0  0
  4 17  1  0  0  0  0
  5  6  1  0  0  0  0
  5 16  1  0  0  0  0
  6 25  1  0  0  0  0
  7  8  2  0  0  0  0
  7 13  1  0  0  0  0
  8 12  1  0  0  0  0
  8 26  1  0  0  0  0
 11 20  1  0  0  0  0
 11 27  1  0  0  0  0
 12 14  2  0  0  0  0
 12 21  1  0  0  0  0
 13 15  2  0  0  0  0
 13 28  1  0  0  0  0
 14 15  1  0  0  0  0
 14 22  1  0  0  0  0
 15 29  1  0  0  0  0
 17 19  1  0  0  0  0
 17 30  1  0  0  0  0
 17 31  1  0  0  0  0
 18 32  1  0  0  0  0
 18 33  1  0  0  0  0
 18 34  1  0  0  0  0
 19 20  1  0  0  0  0
 19 35  1  0  0  0  0
 19 36  1  0  0  0  0
 20 37  1  0  0  0  0
 20 38  1  0  0  0  0
 21 23  2  0  0  0  0
 21 39  1  0  0  0  0
 22 24  2  0  0  0  0
 22 40  1  0  0  0  0
 23 24  1  0  0  0  0
 23 41  1  0  0  0  0
 24 42  1  0  0  0  0
M  END
>  <$CLUSTER>
787

>  <INDEX>
516253

$$$$
Tripos 1557-13590
 OpenBabel04062209303D

 45 47  0  0  0  0  0  0  0  0999 V2000
    0.8590    1.9170   -0.5700 S   0  0  0  0  0  0  0  0  0  0  0  0
    0.3520    0.4420   -1.2820 N   0  0  0  0  0  0  0  0  0  0  0  0
   -0.7100    2.5850   -0.0630 C   0  0  0  0  0  0  0  0  0  0  0  0
    1.3590    2.7750   -1.6280 O   0  0  0  0  0  0  0  0  0  0  0  0
    1.6480    1.6790    0.6210 O   0  0  0  0  0  0  0  0  0  0  0  0
   -3.1280    3.7130    0.7890 C   0  0  0  0  0  0  0  0  0  0  0  0
   -4.4190    4.3290    1.2090 C   0  0  0  0  0  0  0  0  0  0  0  0
   -1.4570    3.3980   -0.9310 C   0  0  0  0  0  0  0  0  0  0  0  0
   -1.1730    2.3640    1.2480 C   0  0  0  0  0  0  0  0  0  0  0  0
   -5.0510    5.0240    0.4150 O   0  0  0  0  0  0  0  0  0  0  0  0
   -2.6670    3.9520   -0.5060 C   0  0  0  0  0  0  0  0  0  0  0  0
   -2.3830    2.9200    1.6650 C   0  0  0  0  0  0  0  0  0  0  0  0
   -0.0880   -0.6140   -0.4100 C   0  0  0  0  0  0  0  0  0  0  0  0
   -0.9920   -2.6270    1.2970 C   0  0  0  0  0  0  0  0  0  0  0  0
   -1.4810   -3.7370    2.2170 C   0  0  0  0  0  0  0  0  0  0  0  0
   -1.4380   -0.9750   -0.4100 C   0  0  0  0  0  0  0  0  0  0  0  0
    0.8100   -1.2600    0.4440 C   0  0  0  0  0  0  0  0  0  0  0  0
    0.3550   -2.2670    1.2960 C   0  0  0  0  0  0  0  0  0  0  0  0
   -1.8880   -1.9830    0.4450 C   0  0  0  0  0  0  0  0  0  0  0  0
   -1.4010   -5.1010    1.5480 C   0  0  0  0  0  0  0  0  0  0  0  0
   -4.9320    4.0860    2.6040 C   0  0  0  0  0  0  0  0  0  0  0  0
   -0.2360   -5.8690    1.6490 C   0  0  0  0  0  0  0  0  0  0  0  0
   -2.4780   -5.5840    0.7990 C   0  0  0  0  0  0  0  0  0  0  0  0
   -2.3970   -6.8280    0.1720 C   0  0  0  0  0  0  0  0  0  0  0  0
   -0.1570   -7.1120    1.0200 C   0  0  0  0  0  0  0  0  0  0  0  0
   -1.2380   -7.5910    0.2840 C   0  0  0  0  0  0  0  0  0  0  0  0
    0.3620    0.3180   -2.2840 H   0  0  0  0  0  0  0  0  0  0  0  0
   -1.0950    3.5950   -1.9290 H   0  0  0  0  0  0  0  0  0  0  0  0
   -0.5910    1.7640    1.9320 H   0  0  0  0  0  0  0  0  0  0  0  0
   -3.2460    4.5660   -1.1800 H   0  0  0  0  0  0  0  0  0  0  0  0
   -2.7440    2.7370    2.6660 H   0  0  0  0  0  0  0  0  0  0  0  0
   -2.5170   -3.5380    2.4900 H   0  0  0  0  0  0  0  0  0  0  0  0
   -0.8640   -3.7480    3.1160 H   0  0  0  0  0  0  0  0  0  0  0  0
   -2.1320   -0.4750   -1.0700 H   0  0  0  0  0  0  0  0  0  0  0  0
    1.8530   -0.9810    0.4450 H   0  0  0  0  0  0  0  0  0  0  0  0
    1.0470   -2.7680    1.9560 H   0  0  0  0  0  0  0  0  0  0  0  0
   -2.9310   -2.2640    0.4460 H   0  0  0  0  0  0  0  0  0  0  0  0
   -4.2300    3.4500    3.1430 H   0  0  0  0  0  0  0  0  0  0  0  0
   -5.9030    3.5940    2.5530 H   0  0  0  0  0  0  0  0  0  0  0  0
   -5.0330    5.0380    3.1250 H   0  0  0  0  0  0  0  0  0  0  0  0
    0.6050   -5.4980    2.2160 H   0  0  0  0  0  0  0  0  0  0  0  0
   -3.3760   -4.9920    0.7050 H   0  0  0  0  0  0  0  0  0  0  0  0
   -3.2340   -7.1990   -0.4010 H   0  0  0  0  0  0  0  0  0  0  0  0
    0.7430   -7.7030    1.1040 H   0  0  0  0  0  0  0  0  0  0  0  0
   -1.1770   -8.5550   -0.2000 H   0  0  0  0  0  0  0  0  0  0  0  0
  1  2  1  0  0  0  0
  1  3  1  0  0  0  0
  1  4  2  0  0  0  0
  1  5  2  0  0  0  0
  2 13  1  0  0  0  0
  2 27  1  0  0  0  0
  3  8  2  0  0  0  0
  3  9  1  0  0  0  0
  6  7  1  0  0  0  0
  6 11  2  0  0  0  0
  6 12  1  0  0  0  0
  7 10  2  0  0  0  0
  7 21  1  0  0  0  0
  8 11  1  0  0  0  0
  8 28  1  0  0  0  0
  9 12  2  0  0  0  0
  9 29  1  0  0  0  0
 11 30  1  0  0  0  0
 12 31  1  0  0  0  0
 13 16  1  0  0  0  0
 13 17  2  0  0  0  0
 14 15  1  0  0  0  0
 14 18  2  0  0  0  0
 14 19  1  0  0  0  0
 15 20  1  0  0  0  0
 15 32  1  0  0  0  0
 15 33  1  0  0  0  0
 16 19  2  0  0  0  0
 16 34  1  0  0  0  0
 17 18  1  0  0  0  0
 17 35  1  0  0  0  0
 18 36  1  0  0  0  0
 19 37  1  0  0  0  0
 20 22  1  0  0  0  0
 20 23  2  0  0  0  0
 21 38  1  0  0  0  0
 21 39  1  0  0  0  0
 21 40  1  0  0  0  0
 22 25  2  0  0  0  0
 22 41  1  0  0  0  0
 23 24  1  0  0  0  0
 23 42  1  0  0  0  0
 24 26  2  0  0  0  0
 24 43  1  0  0  0  0
 25 26  1  0  0  0  0
 25 44  1  0  0  0  0
 26 45  1  0  0  0  0
M  END
>  <$CLUSTER>
723

>  <INDEX>
472375

$$$$
EMC Microcollections 013A0485
 OpenBabel04062209303D

 40 41  0  0  1  0  0  0  0  0999 V2000
    0.2900    1.5800   -1.5560 C   0  0  0  0  0  0  0  0  0  0  0  0
    1.6510    1.7220   -1.6580 N   0  0  0  0  0  0  0  0  0  0  0  0
    1.9130    2.6960   -2.5000 C   0  0  0  0  0  0  0  0  0  0  0  0
    0.5590    3.4790   -3.2020 S   0  0  0  0  0  0  0  0  0  0  0  0
   -0.3110    0.5310   -0.6600 C   0  0  0  0  0  0  0  0  0  0  0  0
   -0.4720    2.4360   -2.3130 C   0  0  0  0  0  0  0  0  0  0  0  0
    0.6530   -0.2090    0.0040 N   0  0  0  0  0  0  0  0  0  0  0  0
   -1.5250    0.3870   -0.5480 O   0  0  0  0  0  0  0  0  0  0  0  0
    3.3110    3.1420   -2.8590 C   0  0  2  0  0  0  0  0  0  0  0  0
    0.3250   -1.2780    0.9280 C   0  0  0  0  0  0  0  0  0  0  0  0
   -0.3660    0.2280    4.9260 C   0  0  0  0  0  0  0  0  0  0  0  0
    0.0810   -0.7470    2.3280 C   0  0  0  0  0  0  0  0  0  0  0  0
    4.2240    1.9790   -3.0760 N   0  3  0  0  0  0  0  0  0  0  0  0
   -0.6520    0.8080    6.5000 Cl  0  0  0  0  0  0  0  0  0  0  0  0
   -1.4480   -0.0570    4.0910 C   0  0  0  0  0  0  0  0  0  0  0  0
    0.9370    0.0360    4.4670 C   0  0  0  0  0  0  0  0  0  0  0  0
   -1.2260   -0.5400    2.7980 C   0  0  0  0  0  0  0  0  0  0  0  0
    1.1600   -0.4460    3.1750 C   0  0  0  0  0  0  0  0  0  0  0  0
    3.9150    4.0080   -1.7580 C   0  0  0  0  0  0  0  0  0  0  0  0
    5.2860    4.6450   -2.0800 C   0  0  0  0  0  0  0  0  0  0  0  0
    5.7610    5.5940   -0.9890 C   0  0  0  0  0  0  0  0  0  0  0  0
   -1.5510    2.4500   -2.3440 H   0  0  0  0  0  0  0  0  0  0  0  0
    1.6260    0.0050   -0.1620 H   0  0  0  0  0  0  0  0  0  0  0  0
    3.2190    3.7150   -3.7820 H   0  0  0  0  0  0  0  0  0  0  0  0
   -0.5750   -1.7840    0.5790 H   0  0  0  0  0  0  0  0  0  0  0  0
    1.1520   -1.9870    0.9570 H   0  0  0  0  0  0  0  0  0  0  0  0
    4.3060    1.4510   -2.2190 H   0  0  0  0  0  0  0  0  0  0  0  0
    5.1350    2.3140   -3.3540 H   0  0  0  0  0  0  0  0  0  0  0  0
    3.8470    1.3860   -3.8020 H   0  0  0  0  0  0  0  0  0  0  0  0
   -2.4570    0.0960    4.4440 H   0  0  0  0  0  0  0  0  0  0  0  0
    1.7740    0.2600    5.1110 H   0  0  0  0  0  0  0  0  0  0  0  0
   -2.0670   -0.7560    2.1550 H   0  0  0  0  0  0  0  0  0  0  0  0
    2.1710   -0.5880    2.8240 H   0  0  0  0  0  0  0  0  0  0  0  0
    3.2130    4.8140   -1.5440 H   0  0  0  0  0  0  0  0  0  0  0  0
    4.0350    3.3860   -0.8710 H   0  0  0  0  0  0  0  0  0  0  0  0
    6.0220    3.8490   -2.1960 H   0  0  0  0  0  0  0  0  0  0  0  0
    5.2020    5.2010   -3.0140 H   0  0  0  0  0  0  0  0  0  0  0  0
    5.8490    5.0510   -0.0480 H   0  0  0  0  0  0  0  0  0  0  0  0
    5.0420    6.4050   -0.8740 H   0  0  0  0  0  0  0  0  0  0  0  0
    6.7320    6.0060   -1.2630 H   0  0  0  0  0  0  0  0  0  0  0  0
  1  2  1  0  0  0  0
  1  5  1  0  0  0  0
  1  6  2  0  0  0  0
  2  3  2  0  0  0  0
  3  4  1  0  0  0  0
  3  9  1  0  0  0  0
  4  6  1  0  0  0  0
  5  7  1  0  0  0  0
  5  8  2  0  0  0  0
  6 22  1  0  0  0  0
  7 10  1  0  0  0  0
  7 23  1  0  0  0  0
  9 13  1  0  0  0  0
  9 19  1  0  0  0  0
  9 24  1  6  0  0  0
 10 12  1  0  0  0  0
 10 25  1  0  0  0  0
 10 26  1  0  0  0  0
 11 14  1  0  0  0  0
 11 15  2  0  0  0  0
 11 16  1  0  0  0  0
 12 17  2  0  0  0  0
 12 18  1  0  0  0  0
 13 27  1  0  0  0  0
 13 28  1  0  0  0  0
 13 29  1  0  0  0  0
 15 17  1  0  0  0  0
 15 30  1  0  0  0  0
 16 18  2  0  0  0  0
 16 31  1  0  0  0  0
 17 32  1  0  0  0  0
 18 33  1  0  0  0  0
 19 20  1  0  0  0  0
 19 34  1  0  0  0  0
 19 35  1  0  0  0  0
 20 21  1  0  0  0  0
 20 36  1  0  0  0  0
 20 37  1  0  0  0  0
 21 38  1  0  0  0  0
 21 39  1  0  0  0  0
 21 40  1  0  0  0  0
M  CHG  1  13   1
M  END
>  <$CLUSTER>
344

>  <INDEX>
221508

$$$$
Asinex ASN 06601079
 OpenBabel04062209303D

 53 56  0  0  0  0  0  0  0  0999 V2000
    0.5170    1.0120    0.1900 C   0  0  0  0  0  0  0  0  0  0  0  0
   -2.8570   -1.0860    3.6470 N   0  0  0  0  0  0  0  0  0  0  0  0
   -2.2000   -1.7910    2.7600 C   0  0  0  0  0  0  0  0  0  0  0  0
   -2.7750   -3.0130    2.5510 N   0  0  0  0  0  0  0  0  0  0  0  0
   -0.1170   -0.2130   -0.0310 N   0  0  0  0  0  0  0  0  0  0  0  0
    0.0470    1.7710    1.2130 N   0  0  0  0  0  0  0  0  0  0  0  0
   -3.8970   -1.8930    4.0340 C   0  0  0  0  0  0  0  0  0  0  0  0
   -3.8670   -3.0930    3.3670 C   0  0  0  0  0  0  0  0  0  0  0  0
   -0.9690   -1.3550    2.0070 C   0  0  0  0  0  0  0  0  0  0  0  0
    1.8100    1.6340   -0.6860 S   0  0  0  0  0  0  0  0  0  0  0  0
   -1.3190   -0.6320    0.7140 C   0  0  0  0  0  0  0  0  0  0  0  0
    0.3650   -1.1860   -1.0320 C   0  0  0  0  0  0  0  0  0  0  0  0
    0.1690    2.9470    1.9230 C   0  0  0  0  0  0  0  0  0  0  0  0
    1.1460    3.8880    1.5920 C   0  0  0  0  0  0  0  0  0  0  0  0
   -0.3350   -1.0300   -2.3750 C   0  0  0  0  0  0  0  0  0  0  0  0
    1.2670    5.0810    2.3150 C   0  0  0  0  0  0  0  0  0  0  0  0
   -4.9240   -1.6440    4.9720 C   0  0  0  0  0  0  0  0  0  0  0  0
   -0.5680    4.4240    3.7270 C   0  0  0  0  0  0  0  0  0  0  0  0
   -4.8140   -4.1120    3.5630 C   0  0  0  0  0  0  0  0  0  0  0  0
   -0.6870    3.2340    3.0020 C   0  0  0  0  0  0  0  0  0  0  0  0
    0.4130    5.3500    3.3820 C   0  0  0  0  0  0  0  0  0  0  0  0
    2.3230    6.0730    1.9400 C   0  0  0  0  0  0  0  0  0  0  0  0
    0.2770   -0.3200   -3.4110 C   0  0  0  0  0  0  0  0  0  0  0  0
   -1.6130   -1.5690   -2.5660 C   0  0  0  0  0  0  0  0  0  0  0  0
   -5.8820   -2.6430    5.1880 C   0  0  0  0  0  0  0  0  0  0  0  0
   -5.8250   -3.8550    4.4950 C   0  0  0  0  0  0  0  0  0  0  0  0
   -2.2570   -1.4290   -3.7980 C   0  0  0  0  0  0  0  0  0  0  0  0
   -0.3700   -0.1800   -4.6430 C   0  0  0  0  0  0  0  0  0  0  0  0
   -1.6340   -0.7360   -4.8360 C   0  0  0  0  0  0  0  0  0  0  0  0
   -2.4520   -3.7250    1.9120 H   0  0  0  0  0  0  0  0  0  0  0  0
   -0.7150    1.2560    1.6310 H   0  0  0  0  0  0  0  0  0  0  0  0
   -0.3720   -2.2350    1.7680 H   0  0  0  0  0  0  0  0  0  0  0  0
   -0.3890   -0.6840    2.6400 H   0  0  0  0  0  0  0  0  0  0  0  0
   -1.9070   -1.3010    0.0850 H   0  0  0  0  0  0  0  0  0  0  0  0
   -1.9090    0.2520    0.9550 H   0  0  0  0  0  0  0  0  0  0  0  0
    0.1830   -2.1930   -0.6570 H   0  0  0  0  0  0  0  0  0  0  0  0
    1.4350   -1.0390   -1.1760 H   0  0  0  0  0  0  0  0  0  0  0  0
    1.8170    3.6930    0.7680 H   0  0  0  0  0  0  0  0  0  0  0  0
   -4.9690   -0.7080    5.5090 H   0  0  0  0  0  0  0  0  0  0  0  0
   -1.2350    4.6240    4.5520 H   0  0  0  0  0  0  0  0  0  0  0  0
   -4.7640   -5.0450    3.0220 H   0  0  0  0  0  0  0  0  0  0  0  0
   -1.4510    2.5210    3.2760 H   0  0  0  0  0  0  0  0  0  0  0  0
    0.5110    6.2710    3.9380 H   0  0  0  0  0  0  0  0  0  0  0  0
    2.8900    5.6960    1.0890 H   0  0  0  0  0  0  0  0  0  0  0  0
    2.9940    6.2260    2.7850 H   0  0  0  0  0  0  0  0  0  0  0  0
    1.8540    7.0200    1.6720 H   0  0  0  0  0  0  0  0  0  0  0  0
    1.2510    0.1210   -3.2600 H   0  0  0  0  0  0  0  0  0  0  0  0
   -2.1020   -2.0940   -1.7590 H   0  0  0  0  0  0  0  0  0  0  0  0
   -6.6760   -2.4740    5.9000 H   0  0  0  0  0  0  0  0  0  0  0  0
   -6.5760   -4.6080    4.6830 H   0  0  0  0  0  0  0  0  0  0  0  0
   -3.2370   -1.8570   -3.9470 H   0  0  0  0  0  0  0  0  0  0  0  0
    0.1100    0.3600   -5.4460 H   0  0  0  0  0  0  0  0  0  0  0  0
   -2.1310   -0.6300   -5.7890 H   0  0  0  0  0  0  0  0  0  0  0  0
  1  5  1  0  0  0  0
  1  6  1  0  0  0  0
  1 10  2  0  0  0  0
  2  3  2  0  0  0  0
  2  7  1  0  0  0  0
  3  4  1  0  0  0  0
  3  9  1  0  0  0  0
  4  8  1  0  0  0  0
  4 30  1  0  0  0  0
  5 11  1  0  0  0  0
  5 12  1  0  0  0  0
  6 13  1  0  0  0  0
  6 31  1  0  0  0  0
  7  8  2  0  0  0  0
  7 17  1  0  0  0  0
  8 19  1  0  0  0  0
  9 11  1  0  0  0  0
  9 32  1  0  0  0  0
  9 33  1  0  0  0  0
 11 34  1  0  0  0  0
 11 35  1  0  0  0  0
 12 15  1  0  0  0  0
 12 36  1  0  0  0  0
 12 37  1  0  0  0  0
 13 14  2  0  0  0  0
 13 20  1  0  0  0  0
 14 16  1  0  0  0  0
 14 38  1  0  0  0  0
 15 23  1  0  0  0  0
 15 24  2  0  0  0  0
 16 21  2  0  0  0  0
 16 22  1  0  0  0  0
 17 25  2  0  0  0  0
 17 39  1  0  0  0  0
 18 20  2  0  0  0  0
 18 21  1  0  0  0  0
 18 40  1  0  0  0  0
 19 26  2  0  0  0  0
 19 41  1  0  0  0  0
 20 42  1  0  0  0  0
 21 43  1  0  0  0  0
 22 44  1  0  0  0  0
 22 45  1  0  0  0  0
 22 46  1  0  0  0  0
 23 28  2  0  0  0  0
 23 47  1  0  0  0  0
 24 27  1  0  0  0  0
 24 48  1  0  0  0  0
 25 26  1  0  0  0  0
 25 49  1  0  0  0  0
 26 50  1  0  0  0  0
 27 29  2  0  0  0  0
 27 51  1  0  0  0  0
 28 29  1  0  0  0  0
 28 52  1  0  0  0  0
 29 53  1  0  0  0  0
M  END
>  <$CLUSTER>
257

>  <INDEX>
162964

$$$$
Cerep CER0116166
 OpenBabel04062209303D

 39 42  0  0  0  0  0  0  0  0999 V2000
    0.6950    0.9520    0.0330 C   0  0  0  0  0  0  0  0  0  0  0  0
   -0.7070    0.7670   -0.0510 C   0  0  0  0  0  0  0  0  0  0  0  0
    1.7460   -0.0270    0.1580 C   0  0  0  0  0  0  0  0  0  0  0  0
   -1.4310   -0.4970   -0.1000 C   0  0  0  0  0  0  0  0  0  0  0  0
    1.0100    2.2550    0.0210 N   0  0  0  0  0  0  0  0  0  0  0  0
    1.5330   -1.3360    0.4900 O   0  0  0  0  0  0  0  0  0  0  0  0
    3.0230    0.2590    0.0000 N   0  0  0  0  0  0  0  0  0  0  0  0
   -0.9200   -1.5240   -0.8730 N   0  0  0  0  0  0  0  0  0  0  0  0
    2.8030   -1.8210    0.5020 C   0  0  0  0  0  0  0  0  0  0  0  0
    3.7130   -0.9190    0.2190 N   0  0  0  0  0  0  0  0  0  0  0  0
   -0.1920    2.9340   -0.0450 O   0  0  0  0  0  0  0  0  0  0  0  0
   -1.2200    2.0440   -0.0850 C   0  0  0  0  0  0  0  0  0  0  0  0
   -2.6290   -0.7700    0.5310 C   0  0  0  0  0  0  0  0  0  0  0  0
   -1.7230   -2.5620   -0.8000 C   0  0  0  0  0  0  0  0  0  0  0  0
   -3.1240   -2.3740    0.1710 S   0  0  0  0  0  0  0  0  0  0  0  0
    3.0910   -3.4980    0.8750 S   0  0  0  0  0  0  0  0  0  0  0  0
    4.8920   -3.5840    0.7570 C   0  0  0  0  0  0  0  0  0  0  0  0
    6.8260   -1.4910    4.0110 C   0  0  0  0  0  0  0  0  0  0  0  0
    5.5880   -2.8490    1.8990 C   0  0  0  0  0  0  0  0  0  0  0  0
    7.4230   -0.9230    5.0590 F   0  0  0  0  0  0  0  0  0  0  0  0
    6.4840   -0.8060    2.8470 C   0  0  0  0  0  0  0  0  0  0  0  0
    6.5440   -2.8530    4.1260 C   0  0  0  0  0  0  0  0  0  0  0  0
    5.8610   -1.4800    1.7940 C   0  0  0  0  0  0  0  0  0  0  0  0
    5.9220   -3.5300    3.0760 C   0  0  0  0  0  0  0  0  0  0  0  0
   -2.5770    2.6180   -0.1720 C   0  0  0  0  0  0  0  0  0  0  0  0
   -1.4740   -3.8330   -1.4950 C   0  0  0  0  0  0  0  0  0  0  0  0
   -3.1730   -0.0780    1.1570 H   0  0  0  0  0  0  0  0  0  0  0  0
    5.2020   -3.1370   -0.1870 H   0  0  0  0  0  0  0  0  0  0  0  0
    5.1940   -4.6310    0.7800 H   0  0  0  0  0  0  0  0  0  0  0  0
    6.7010    0.2480    2.7590 H   0  0  0  0  0  0  0  0  0  0  0  0
    6.8080   -3.3840    5.0290 H   0  0  0  0  0  0  0  0  0  0  0  0
    5.5890   -0.9440    0.8970 H   0  0  0  0  0  0  0  0  0  0  0  0
    5.6980   -4.5820    3.1720 H   0  0  0  0  0  0  0  0  0  0  0  0
   -3.3110    1.8130   -0.1970 H   0  0  0  0  0  0  0  0  0  0  0  0
   -2.6610    3.2150   -1.0800 H   0  0  0  0  0  0  0  0  0  0  0  0
   -2.7610    3.2500    0.6970 H   0  0  0  0  0  0  0  0  0  0  0  0
   -0.5430   -3.7630   -2.0580 H   0  0  0  0  0  0  0  0  0  0  0  0
   -2.2970   -4.0410   -2.1790 H   0  0  0  0  0  0  0  0  0  0  0  0
   -1.3970   -4.6380   -0.7640 H   0  0  0  0  0  0  0  0  0  0  0  0
  1  2  1  0  0  0  0
  1  3  1  0  0  0  0
  1  5  2  0  0  0  0
  2  4  1  0  0  0  0
  2 12  2  0  0  0  0
  3  6  1  0  0  0  0
  3  7  2  0  0  0  0
  4  8  1  0  0  0  0
  4 13  2  0  0  0  0
  5 11  1  0  0  0  0
  6  9  1  0  0  0  0
  7 10  1  0  0  0  0
  8 14  2  0  0  0  0
  9 10  2  0  0  0  0
  9 16  1  0  0  0  0
 11 12  1  0  0  0  0
 12 25  1  0  0  0  0
 13 15  1  0  0  0  0
 13 27  1  0  0  0  0
 14 15  1  0  0  0  0
 14 26  1  0  0  0  0
 16 17  1  0  0  0  0
 17 19  1  0  0  0  0
 17 28  1  0  0  0  0
 17 29  1  0  0  0  0
 18 20  1  0  0  0  0
 18 21  2  0  0  0  0
 18 22  1  0  0  0  0
 19 23  2  0  0  0  0
 19 24  1  0  0  0  0
 21 23  1  0  0  0  0
 21 30  1  0  0  0  0
 22 24  2  0  0  0  0
 22 31  1  0  0  0  0
 23 32  1  0  0  0  0
 24 33  1  0  0  0  0
 25 34  1  0  0  0  0
 25 35  1  0  0  0  0
 25 36  1  0  0  0  0
 26 37  1  0  0  0  0
 26 38  1  0  0  0  0
 26 39  1  0  0  0  0
M  END
>  <$CLUSTER>
296

>  <INDEX>
188204

$$$$
Tripos 1554-07659
 OpenBabel04062209303D

 44 45  0  0  0  0  0  0  0  0999 V2000
    0.8590    1.9170   -0.5700 S   0  0  0  0  0  0  0  0  0  0  0  0
    0.3520    0.4420   -1.2820 N   0  0  0  0  0  0  0  0  0  0  0  0
   -0.7100    2.5850   -0.0630 C   0  0  0  0  0  0  0  0  0  0  0  0
    1.3590    2.7750   -1.6280 O   0  0  0  0  0  0  0  0  0  0  0  0
    1.6480    1.6790    0.6210 O   0  0  0  0  0  0  0  0  0  0  0  0
   -5.2630    5.0600    0.6470 C   0  0  0  0  0  0  0  0  0  0  0  0
   -4.3480    4.2480    1.3050 N   0  0  0  0  0  0  0  0  0  0  0  0
   -5.2070    5.4820   -0.5040 O   0  0  0  0  0  0  0  0  0  0  0  0
   -1.4570    3.3980   -0.9310 C   0  0  0  0  0  0  0  0  0  0  0  0
   -1.1730    2.3640    1.2480 C   0  0  0  0  0  0  0  0  0  0  0  0
   -0.0880   -0.6140   -0.4100 C   0  0  0  0  0  0  0  0  0  0  0  0
   -1.5670   -3.5990    2.0890 O   0  0  0  0  0  0  0  0  0  0  0  0
   -3.1280    3.7130    0.7890 C   0  0  0  0  0  0  0  0  0  0  0  0
   -0.9920   -2.6270    1.2970 C   0  0  0  0  0  0  0  0  0  0  0  0
   -2.3830    2.9200    1.6650 C   0  0  0  0  0  0  0  0  0  0  0  0
   -2.6670    3.9520   -0.5060 C   0  0  0  0  0  0  0  0  0  0  0  0
   -1.4380   -0.9750   -0.4100 C   0  0  0  0  0  0  0  0  0  0  0  0
    0.8100   -1.2600    0.4440 C   0  0  0  0  0  0  0  0  0  0  0  0
    0.3550   -2.2670    1.2960 C   0  0  0  0  0  0  0  0  0  0  0  0
   -1.8880   -1.9830    0.4450 C   0  0  0  0  0  0  0  0  0  0  0  0
   -0.7320   -4.4230    2.9110 C   0  0  0  0  0  0  0  0  0  0  0  0
   -6.4260    5.4060    1.5420 C   0  0  0  0  0  0  0  0  0  0  0  0
   -0.5230   -3.7620    4.2700 C   0  0  0  0  0  0  0  0  0  0  0  0
   -1.4670   -5.7500    3.0850 C   0  0  0  0  0  0  0  0  0  0  0  0
    0.3620    0.3180   -2.2840 H   0  0  0  0  0  0  0  0  0  0  0  0
   -4.5710    4.0080    2.2600 H   0  0  0  0  0  0  0  0  0  0  0  0
   -1.0950    3.5950   -1.9290 H   0  0  0  0  0  0  0  0  0  0  0  0
   -0.5910    1.7640    1.9320 H   0  0  0  0  0  0  0  0  0  0  0  0
   -2.7440    2.7370    2.6660 H   0  0  0  0  0  0  0  0  0  0  0  0
   -3.2460    4.5660   -1.1800 H   0  0  0  0  0  0  0  0  0  0  0  0
   -2.1320   -0.4750   -1.0700 H   0  0  0  0  0  0  0  0  0  0  0  0
    1.8530   -0.9810    0.4450 H   0  0  0  0  0  0  0  0  0  0  0  0
    1.0470   -2.7680    1.9560 H   0  0  0  0  0  0  0  0  0  0  0  0
   -2.9310   -2.2640    0.4460 H   0  0  0  0  0  0  0  0  0  0  0  0
    0.2470   -4.5700    2.4560 H   0  0  0  0  0  0  0  0  0  0  0  0
   -6.2870    4.9370    2.5160 H   0  0  0  0  0  0  0  0  0  0  0  0
   -7.3510    5.0440    1.0930 H   0  0  0  0  0  0  0  0  0  0  0  0
   -6.4810    6.4880    1.6640 H   0  0  0  0  0  0  0  0  0  0  0  0
   -1.4890   -3.6030    4.7490 H   0  0  0  0  0  0  0  0  0  0  0  0
   -0.0220   -2.8040    4.1350 H   0  0  0  0  0  0  0  0  0  0  0  0
    0.0910   -4.4080    4.8970 H   0  0  0  0  0  0  0  0  0  0  0  0
   -2.4400   -5.5690    3.5410 H   0  0  0  0  0  0  0  0  0  0  0  0
   -0.8810   -6.4080    3.7270 H   0  0  0  0  0  0  0  0  0  0  0  0
   -1.6040   -6.2200    2.1110 H   0  0  0  0  0  0  0  0  0  0  0  0
  1  2  1  0  0  0  0
  1  3  1  0  0  0  0
  1  4  2  0  0  0  0
  1  5  2  0  0  0  0
  2 11  1  0  0  0  0
  2 25  1  0  0  0  0
  3  9  1  0  0  0  0
  3 10  2  0  0  0  0
  6  7  1  0  0  0  0
  6  8  2  0  0  0  0
  6 22  1  0  0  0  0
  7 13  1  0  0  0  0
  7 26  1  0  0  0  0
  9 16  2  0  0  0  0
  9 27  1  0  0  0  0
 10 15  1  0  0  0  0
 10 28  1  0  0  0  0
 11 17  1  0  0  0  0
 11 18  2  0  0  0  0
 12 14  1  0  0  0  0
 12 21  1  0  0  0  0
 13 15  2  0  0  0  0
 13 16  1  0  0  0  0
 14 19  2  0  0  0  0
 14 20  1  0  0  0  0
 15 29  1  0  0  0  0
 16 30  1  0  0  0  0
 17 20  2  0  0  0  0
 17 31  1  0  0  0  0
 18 19  1  0  0  0  0
 18 32  1  0  0  0  0
 19 33  1  0  0  0  0
 20 34  1  0  0  0  0
 21 23  1  0  0  0  0
 21 24  1  0  0  0  0
 21 35  1  0  0  0  0
 22 36  1  0  0  0  0
 22 37  1  0  0  0  0
 22 38  1  0  0  0  0
 23 39  1  0  0  0  0
 23 40  1  0  0  0  0
 23 41  1  0  0  0  0
 24 42  1  0  0  0  0
 24 43  1  0  0  0  0
 24 44  1  0  0  0  0
M  END
>  <$CLUSTER>
717

>  <INDEX>
467588

$$$$
Princeton Biomolecular OSSK_115610
 OpenBabel04062209303D

 40 41  0  0  1  0  0  0  0  0999 V2000
    0.5050    2.0520   -0.7350 S   0  0  0  0  0  0  0  0  0  0  0  0
    0.6050    0.4240   -1.2640 N   0  0  0  0  0  0  0  0  0  0  0  0
    1.6930    2.0340    0.5890 C   0  0  0  0  0  0  0  0  0  0  0  0
    1.0520    2.8960   -1.7810 O   0  0  0  0  0  0  0  0  0  0  0  0
   -0.7960    2.3370   -0.1630 O   0  0  0  0  0  0  0  0  0  0  0  0
    3.5180    2.0990    2.7120 C   0  0  0  0  0  0  0  0  0  0  0  0
    1.2650    1.7540    1.9030 C   0  0  0  0  0  0  0  0  0  0  0  0
    3.0340    2.3720    0.3590 C   0  0  0  0  0  0  0  0  0  0  0  0
    3.9440    2.3950    1.4160 C   0  0  0  0  0  0  0  0  0  0  0  0
    2.1810    1.7790    2.9560 C   0  0  0  0  0  0  0  0  0  0  0  0
    0.0220   -0.5940   -0.4320 C   0  0  0  0  0  0  0  0  0  0  0  0
   -1.0630   -2.5590    1.2270 C   0  0  0  0  0  0  0  0  0  0  0  0
    4.5030    2.1290    3.8940 C   0  0  2  0  0  0  0  0  0  0  0  0
   -1.3610   -0.6700   -0.2530 C   0  0  0  0  0  0  0  0  0  0  0  0
    0.8630   -1.5010    0.2200 C   0  0  0  0  0  0  0  0  0  0  0  0
   -1.9010   -1.6540    0.5760 C   0  0  0  0  0  0  0  0  0  0  0  0
    0.3180   -2.4830    1.0480 C   0  0  0  0  0  0  0  0  0  0  0  0
   -1.6080   -3.5090    2.0320 O   0  0  0  0  0  0  0  0  0  0  0  0
    5.0940    3.5270    4.1040 C   0  0  0  0  0  0  0  0  0  0  0  0
    5.6140    1.0880    3.7250 C   0  0  0  0  0  0  0  0  0  0  0  0
    4.0800    4.6030    4.4420 C   0  0  0  0  0  0  0  0  0  0  0  0
    1.0600    0.1870   -2.1340 H   0  0  0  0  0  0  0  0  0  0  0  0
    0.2280    1.5200    2.0950 H   0  0  0  0  0  0  0  0  0  0  0  0
    3.3640    2.6150   -0.6400 H   0  0  0  0  0  0  0  0  0  0  0  0
    4.9790    2.6420    1.2320 H   0  0  0  0  0  0  0  0  0  0  0  0
    1.8550    1.5510    3.9600 H   0  0  0  0  0  0  0  0  0  0  0  0
    3.9350    1.8720    4.7880 H   0  0  0  0  0  0  0  0  0  0  0  0
   -2.0110    0.0310   -0.7550 H   0  0  0  0  0  0  0  0  0  0  0  0
    1.9330   -1.4420    0.0830 H   0  0  0  0  0  0  0  0  0  0  0  0
   -2.9700   -1.7150    0.7140 H   0  0  0  0  0  0  0  0  0  0  0  0
    0.9660   -3.1850    1.5510 H   0  0  0  0  0  0  0  0  0  0  0  0
   -0.9760   -4.0990    2.4490 H   0  0  0  0  0  0  0  0  0  0  0  0
    5.6060    3.8200    3.1870 H   0  0  0  0  0  0  0  0  0  0  0  0
    5.8140    3.4710    4.9200 H   0  0  0  0  0  0  0  0  0  0  0  0
    6.1990    1.3220    2.8360 H   0  0  0  0  0  0  0  0  0  0  0  0
    5.1710    0.0980    3.6180 H   0  0  0  0  0  0  0  0  0  0  0  0
    6.2630    1.1030    4.6010 H   0  0  0  0  0  0  0  0  0  0  0  0
    3.3480    4.6770    3.6380 H   0  0  0  0  0  0  0  0  0  0  0  0
    4.5900    5.5590    4.5580 H   0  0  0  0  0  0  0  0  0  0  0  0
    3.5740    4.3460    5.3720 H   0  0  0  0  0  0  0  0  0  0  0  0
  1  2  1  0  0  0  0
  1  3  1  0  0  0  0
  1  4  2  0  0  0  0
  1  5  2  0  0  0  0
  2 11  1  0  0  0  0
  2 22  1  0  0  0  0
  3  7  1  0  0  0  0
  3  8  2  0  0  0  0
  6  9  2  0  0  0  0
  6 10  1  0  0  0  0
  6 13  1  0  0  0  0
  7 10  2  0  0  0  0
  7 23  1  0  0  0  0
  8  9  1  0  0  0  0
  8 24  1  0  0  0  0
  9 25  1  0  0  0  0
 10 26  1  0  0  0  0
 11 14  2  0  0  0  0
 11 15  1  0  0  0  0
 12 16  2  0  0  0  0
 12 17  1  0  0  0  0
 12 18  1  0  0  0  0
 13 19  1  0  0  0  0
 13 20  1  0  0  0  0
 13 27  1  1  0  0  0
 14 16  1  0  0  0  0
 14 28  1  0  0  0  0
 15 17  2  0  0  0  0
 15 29  1  0  0  0  0
 16 30  1  0  0  0  0
 17 31  1  0  0  0  0
 18 32  1  0  0  0  0
 19 21  1  0  0  0  0
 19 33  1  0  0  0  0
 19 34  1  0  0  0  0
 20 35  1  0  0  0  0
 20 36  1  0  0  0  0
 20 37  1  0  0  0  0
 21 38  1  0  0  0  0
 21 39  1  0  0  0  0
 21 40  1  0  0  0  0
M  END
>  <$CLUSTER>
722

>  <INDEX>
577938

$$$$
Pyxis Discovery PYX 00000172
 OpenBabel04062209303D

 52 54  0  0  0  0  0  0  0  0999 V2000
   -0.8890    0.9430   -0.0830 C   0  0  2  0  0  0  0  0  0  0  0  0
    2.2710   -3.2560   -0.8640 C   0  0  0  0  0  0  0  0  0  0  0  0
    1.2230   -1.0820   -0.1890 N   0  3  1  0  0  0  0  0  0  0  0  0
    0.5820    1.2790    0.1990 C   0  0  0  0  0  0  0  0  0  0  0  0
   -0.9940   -0.3040   -0.9720 C   0  0  0  0  0  0  0  0  0  0  0  0
    3.0290   -4.3190   -0.4750 N   0  0  0  0  0  0  0  0  0  0  0  0
   -1.5980    2.1350   -0.7280 C   0  0  0  0  0  0  0  0  0  0  0  0
    2.0660   -2.2480    0.2510 C   0  0  0  0  0  0  0  0  0  0  0  0
    1.7950   -3.1080   -1.9870 O   0  0  0  0  0  0  0  0  0  0  0  0
   -0.2150   -1.4860   -0.4050 C   0  0  0  0  0  0  0  0  0  0  0  0
    1.3520    0.0860    0.7580 C   0  0  0  0  0  0  0  0  0  0  0  0
   -1.1550    2.6240   -1.9960 C   0  0  0  0  0  0  0  0  0  0  0  0
   -2.6840    2.7900   -0.1440 C   0  0  0  0  0  0  0  0  0  0  0  0
   -1.5270    0.6770    1.1690 O   0  0  0  0  0  0  0  0  0  0  0  0
   -2.8620    4.3330   -1.9980 C   0  0  0  0  0  0  0  0  0  0  0  0
   -3.3120    3.8750   -0.7630 C   0  0  0  0  0  0  0  0  0  0  0  0
   -1.7830    3.7070   -2.6150 C   0  0  0  0  0  0  0  0  0  0  0  0
   -3.5130    5.3700   -2.5230 F   0  0  0  0  0  0  0  0  0  0  0  0
    3.3870   -5.4340   -1.3530 C   0  0  0  0  0  0  0  0  0  0  0  0
    4.6650   -5.1120   -2.1220 C   0  0  0  0  0  0  0  0  0  0  0  0
    3.5390   -6.7250   -0.5570 C   0  0  0  0  0  0  0  0  0  0  0  0
    5.1070   -6.2730   -3.0070 C   0  0  0  0  0  0  0  0  0  0  0  0
    3.9740   -7.8910   -1.4330 C   0  0  0  0  0  0  0  0  0  0  0  0
    5.2490   -7.5630   -2.2050 C   0  0  0  0  0  0  0  0  0  0  0  0
    1.5760   -0.7730   -1.0830 H   0  0  0  0  0  0  0  0  0  0  0  0
    0.6230    2.0930    0.9230 H   0  0  0  0  0  0  0  0  0  0  0  0
    1.0540    1.5960   -0.7310 H   0  0  0  0  0  0  0  0  0  0  0  0
   -0.5990   -0.0650   -1.9590 H   0  0  0  0  0  0  0  0  0  0  0  0
   -2.0440   -0.5850   -1.0590 H   0  0  0  0  0  0  0  0  0  0  0  0
    3.3640   -4.3390    0.4770 H   0  0  0  0  0  0  0  0  0  0  0  0
    3.0390   -1.8770    0.5730 H   0  0  0  0  0  0  0  0  0  0  0  0
    1.5720   -2.7440    1.0870 H   0  0  0  0  0  0  0  0  0  0  0  0
   -0.6540   -1.7890    0.5460 H   0  0  0  0  0  0  0  0  0  0  0  0
   -0.2570   -2.3190   -1.1060 H   0  0  0  0  0  0  0  0  0  0  0  0
    2.4040    0.3510    0.8680 H   0  0  0  0  0  0  0  0  0  0  0  0
    0.9430   -0.1870    1.7310 H   0  0  0  0  0  0  0  0  0  0  0  0
   -0.3190    2.1470   -2.4850 H   0  0  0  0  0  0  0  0  0  0  0  0
   -3.0490    2.4490    0.8130 H   0  0  0  0  0  0  0  0  0  0  0  0
   -1.0790   -0.0710    1.5700 H   0  0  0  0  0  0  0  0  0  0  0  0
   -4.1490    4.3590   -0.2810 H   0  0  0  0  0  0  0  0  0  0  0  0
   -1.4310    4.0590   -3.5730 H   0  0  0  0  0  0  0  0  0  0  0  0
    2.5810   -5.5800   -2.0720 H   0  0  0  0  0  0  0  0  0  0  0  0
    5.4590   -4.8910   -1.4090 H   0  0  0  0  0  0  0  0  0  0  0  0
    4.4870   -4.2390   -2.7500 H   0  0  0  0  0  0  0  0  0  0  0  0
    2.5810   -6.9690   -0.0970 H   0  0  0  0  0  0  0  0  0  0  0  0
    4.2870   -6.5720    0.2210 H   0  0  0  0  0  0  0  0  0  0  0  0
    6.0690   -6.0290   -3.4580 H   0  0  0  0  0  0  0  0  0  0  0  0
    4.3650   -6.4230   -3.7910 H   0  0  0  0  0  0  0  0  0  0  0  0
    3.1780   -8.1170   -2.1430 H   0  0  0  0  0  0  0  0  0  0  0  0
    4.1560   -8.7600   -0.8010 H   0  0  0  0  0  0  0  0  0  0  0  0
    6.0710   -7.4510   -1.4980 H   0  0  0  0  0  0  0  0  0  0  0  0
    5.4680   -8.3820   -2.8900 H   0  0  0  0  0  0  0  0  0  0  0  0
  1  4  1  0  0  0  0
  1  5  1  0  0  0  0
  1  7  1  0  0  0  0
  1 14  1  1  0  0  0
  2  6  1  0  0  0  0
  2  8  1  0  0  0  0
  2  9  2  0  0  0  0
  3  8  1  0  0  0  0
  3 10  1  0  0  0  0
  3 11  1  0  0  0  0
  3 25  1  6  0  0  0
  4 11  1  0  0  0  0
  4 26  1  0  0  0  0
  4 27  1  0  0  0  0
  5 10  1  0  0  0  0
  5 28  1  0  0  0  0
  5 29  1  0  0  0  0
  6 19  1  0  0  0  0
  6 30  1  0  0  0  0
  7 12  1  0  0  0  0
  7 13  2  0  0  0  0
  8 31  1  0  0  0  0
  8 32  1  0  0  0  0
 10 33  1  0  0  0  0
 10 34  1  0  0  0  0
 11 35  1  0  0  0  0
 11 36  1  0  0  0  0
 12 17  2  0  0  0  0
 12 37  1  0  0  0  0
 13 16  1  0  0  0  0
 13 38  1  0  0  0  0
 14 39  1  0  0  0  0
 15 16  2  0  0  0  0
 15 17  1  0  0  0  0
 15 18  1  0  0  0  0
 16 40  1  0  0  0  0
 17 41  1  0  0  0  0
 19 20  1  0  0  0  0
 19 21  1  0  0  0  0
 19 42  1  0  0  0  0
 20 22  1  0  0  0  0
 20 43  1  0  0  0  0
 20 44  1  0  0  0  0
 21 23  1  0  0  0  0
 21 45  1  0  0  0  0
 21 46  1  0  0  0  0
 22 24  1  0  0  0  0
 22 47  1  0  0  0  0
 22 48  1  0  0  0  0
 23 24  1  0  0  0  0
 23 49  1  0  0  0  0
 23 50  1  0  0  0  0
 24 51  1  0  0  0  0
 24 52  1  0  0  0  0
M  CHG  1   3   1
M  END
>  <$CLUSTER>
935

>  <INDEX>
611698

$$$$
Chem T&I IVK/0000448
 OpenBabel04062209303D

 50 52  0  0  0  0  0  0  0  0999 V2000
    2.1880    0.0380   -1.5830 S   0  0  0  0  0  0  0  0  0  0  0  0
    0.9490   -0.0300   -0.4530 N   0  0  0  0  0  0  0  0  0  0  0  0
   -1.6750    0.0220    0.9530 N   0  0  0  0  0  0  0  0  0  0  0  0
    3.2190   -0.4060    0.0150 C   0  0  0  0  0  0  0  0  0  0  0  0
    2.3420   -1.1150   -2.3780 O   0  0  0  0  0  0  0  0  0  0  0  0
    2.6500    1.3320   -1.8950 O   0  0  0  0  0  0  0  0  0  0  0  0
   -0.0470   -1.1260   -0.5730 C   0  0  0  0  0  0  0  0  0  0  0  0
    0.2490    1.2350   -0.1070 C   0  0  0  0  0  0  0  0  0  0  0  0
   -2.9890    0.1650    1.0660 C   0  0  0  0  0  0  0  0  0  0  0  0
   -0.6850    1.0970    1.1110 C   0  0  0  0  0  0  0  0  0  0  0  0
   -0.9780   -1.2360    0.6500 C   0  0  0  0  0  0  0  0  0  0  0  0
   -5.8130    0.4720    1.3090 C   0  0  0  0  0  0  0  0  0  0  0  0
   -7.2710    0.6680    1.4430 C   0  0  0  0  0  0  0  0  0  0  0  0
   -7.7170    1.7830    1.7020 O   0  0  0  0  0  0  0  0  0  0  0  0
   -3.5850    1.4100    1.3600 C   0  0  0  0  0  0  0  0  0  0  0  0
   -3.8770   -0.9170    0.9000 C   0  0  0  0  0  0  0  0  0  0  0  0
   -5.2650   -0.7690    1.0190 C   0  0  0  0  0  0  0  0  0  0  0  0
   -4.9720    1.5640    1.4800 C   0  0  0  0  0  0  0  0  0  0  0  0
    3.9670    0.6170    0.6850 C   0  0  0  0  0  0  0  0  0  0  0  0
    3.7150   -1.7460    0.1890 C   0  0  0  0  0  0  0  0  0  0  0  0
    4.6070   -2.0540    1.2170 C   0  0  0  0  0  0  0  0  0  0  0  0
    4.8590    0.3020    1.7120 C   0  0  0  0  0  0  0  0  0  0  0  0
    5.1770   -1.0310    1.9770 C   0  0  0  0  0  0  0  0  0  0  0  0
   -8.1910   -0.5100    1.2600 C   0  0  0  0  0  0  0  0  0  0  0  0
    6.2080   -1.3650    3.0360 C   0  0  0  0  0  0  0  0  0  0  0  0
    5.5390   -1.5770    4.3850 C   0  0  0  0  0  0  0  0  0  0  0  0
    0.4880   -2.0690   -0.6880 H   0  0  0  0  0  0  0  0  0  0  0  0
   -0.6570   -0.9440   -1.4580 H   0  0  0  0  0  0  0  0  0  0  0  0
   -0.3450    1.5490   -0.9660 H   0  0  0  0  0  0  0  0  0  0  0  0
    0.9970    1.9960    0.1140 H   0  0  0  0  0  0  0  0  0  0  0  0
   -0.0790    0.8850    1.9920 H   0  0  0  0  0  0  0  0  0  0  0  0
   -1.2140    2.0390    1.2520 H   0  0  0  0  0  0  0  0  0  0  0  0
   -1.7220   -2.0070    0.4520 H   0  0  0  0  0  0  0  0  0  0  0  0
   -0.3810   -1.5210    1.5170 H   0  0  0  0  0  0  0  0  0  0  0  0
   -2.9500    2.2730    1.4970 H   0  0  0  0  0  0  0  0  0  0  0  0
   -3.4740   -1.8930    0.6730 H   0  0  0  0  0  0  0  0  0  0  0  0
   -5.9110   -1.6240    0.8840 H   0  0  0  0  0  0  0  0  0  0  0  0
   -5.3890    2.5340    1.7060 H   0  0  0  0  0  0  0  0  0  0  0  0
    3.8390    1.6480    0.3910 H   0  0  0  0  0  0  0  0  0  0  0  0
    3.3920   -2.5250   -0.4860 H   0  0  0  0  0  0  0  0  0  0  0  0
    4.8560   -3.0840    1.4250 H   0  0  0  0  0  0  0  0  0  0  0  0
    5.3030    1.0900    2.3020 H   0  0  0  0  0  0  0  0  0  0  0  0
   -7.6020   -1.4000    1.0380 H   0  0  0  0  0  0  0  0  0  0  0  0
   -8.8750   -0.3120    0.4350 H   0  0  0  0  0  0  0  0  0  0  0  0
   -8.7620   -0.6710    2.1750 H   0  0  0  0  0  0  0  0  0  0  0  0
    6.9200   -0.5440    3.1140 H   0  0  0  0  0  0  0  0  0  0  0  0
    6.7340   -2.2760    2.7500 H   0  0  0  0  0  0  0  0  0  0  0  0
    5.0120   -0.6680    4.6760 H   0  0  0  0  0  0  0  0  0  0  0  0
    6.2960   -1.8130    5.1330 H   0  0  0  0  0  0  0  0  0  0  0  0
    4.8300   -2.4020    4.3130 H   0  0  0  0  0  0  0  0  0  0  0  0
  1  2  1  0  0  0  0
  1  4  1  0  0  0  0
  1  5  2  0  0  0  0
  1  6  2  0  0  0  0
  2  7  1  0  0  0  0
  2  8  1  0  0  0  0
  3  9  1  0  0  0  0
  3 10  1  0  0  0  0
  3 11  1  0  0  0  0
  4 19  1  0  0  0  0
  4 20  2  0  0  0  0
  7 11  1  0  0  0  0
  7 27  1  0  0  0  0
  7 28  1  0  0  0  0
  8 10  1  0  0  0  0
  8 29  1  0  0  0  0
  8 30  1  0  0  0  0
  9 15  1  0  0  0  0
  9 16  2  0  0  0  0
 10 31  1  0  0  0  0
 10 32  1  0  0  0  0
 11 33  1  0  0  0  0
 11 34  1  0  0  0  0
 12 13  1  0  0  0  0
 12 17  2  0  0  0  0
 12 18  1  0  0  0  0
 13 14  2  0  0  0  0
 13 24  1  0  0  0  0
 15 18  2  0  0  0  0
 15 35  1  0  0  0  0
 16 17  1  0  0  0  0
 16 36  1  0  0  0  0
 17 37  1  0  0  0  0
 18 38  1  0  0  0  0
 19 22  2  0  0  0  0
 19 39  1  0  0  0  0
 20 21  1  0  0  0  0
 20 40  1  0  0  0  0
 21 23  2  0  0  0  0
 21 41  1  0  0  0  0
 22 23  1  0  0  0  0
 22 42  1  0  0  0  0
 23 25  1  0  0  0  0
 24 43  1  0  0  0  0
 24 44  1  0  0  0  0
 24 45  1  0  0  0  0
 25 26  1  0  0  0  0
 25 46  1  0  0  0  0
 25 47  1  0  0  0  0
 26 48  1  0  0  0  0
 26 49  1  0  0  0  0
 26 50  1  0  0  0  0
M  END
>  <$CLUSTER>
726

>  <INDEX>
553125

$$$$
Life Chemicals F0577-0037
 OpenBabel04062209303D

 53 56  0  0  1  0  0  0  0  0999 V2000
    0.0590    0.8830    0.7700 C   0  0  0  0  0  0  0  0  0  0  0  0
    0.2380    0.5110   -0.5240 C   0  0  0  0  0  0  0  0  0  0  0  0
   -0.4050    0.0110    1.7400 N   0  0  0  0  0  0  0  0  0  0  0  0
    0.0100   -0.9090   -0.9040 C   0  0  0  0  0  0  0  0  0  0  0  0
   -0.4490   -1.7020    0.1250 N   0  0  0  0  0  0  0  0  0  0  0  0
    1.1640    2.8150   -1.0330 C   0  0  0  0  0  0  0  0  0  0  0  0
    0.6970    1.4840   -1.6090 C   0  0  2  0  0  0  0  0  0  0  0  0
    0.3790    2.1940    1.1080 N   0  0  0  0  0  0  0  0  0  0  0  0
    0.9550    3.1190    0.2620 C   0  0  0  0  0  0  0  0  0  0  0  0
   -0.6350   -1.2070    1.3870 C   0  0  0  0  0  0  0  0  0  0  0  0
    1.9140    3.7660   -1.9010 C   0  0  0  0  0  0  0  0  0  0  0  0
   -0.4530    1.7340   -2.5980 C   0  0  0  0  0  0  0  0  0  0  0  0
    0.2270   -1.3290   -2.0360 O   0  0  0  0  0  0  0  0  0  0  0  0
   -2.5060    2.1430   -4.4910 C   0  0  0  0  0  0  0  0  0  0  0  0
   -1.2060   -2.4130    2.4960 S   0  0  0  0  0  0  0  0  0  0  0  0
    2.1940    3.4710   -3.0610 O   0  0  0  0  0  0  0  0  0  0  0  0
   -0.2830    1.3640   -3.9590 C   0  0  0  0  0  0  0  0  0  0  0  0
   -1.6750    2.3040   -2.2290 C   0  0  0  0  0  0  0  0  0  0  0  0
   -1.3030    1.5700   -4.8900 C   0  0  0  0  0  0  0  0  0  0  0  0
   -2.6930    2.5090   -3.1610 C   0  0  0  0  0  0  0  0  0  0  0  0
    1.3300    4.4440    0.8720 C   0  0  0  0  0  0  0  0  0  0  0  0
   -3.6110    2.3580   -5.5350 C   0  0  0  0  0  0  0  0  0  0  0  0
    2.3990    5.0690   -1.3040 C   0  0  0  0  0  0  0  0  0  0  0  0
    1.4920    5.5350   -0.1790 C   0  0  0  0  0  0  0  0  0  0  0  0
   -1.3480   -1.4420    4.0120 C   0  0  0  0  0  0  0  0  0  0  0  0
   -3.9460    3.8430   -5.7030 C   0  0  0  0  0  0  0  0  0  0  0  0
   -4.8680    1.5500   -5.1990 C   0  0  0  0  0  0  0  0  0  0  0  0
   -2.5000   -0.4430    3.9660 C   0  0  0  0  0  0  0  0  0  0  0  0
   -0.6540   -2.6740   -0.0570 H   0  0  0  0  0  0  0  0  0  0  0  0
    1.5460    1.0270   -2.1180 H   0  0  0  0  0  0  0  0  0  0  0  0
    0.1730    2.4930    2.0500 H   0  0  0  0  0  0  0  0  0  0  0  0
    0.6470    0.9180   -4.2780 H   0  0  0  0  0  0  0  0  0  0  0  0
   -1.8350    2.5920   -1.2000 H   0  0  0  0  0  0  0  0  0  0  0  0
   -1.1580    1.2840   -5.9210 H   0  0  0  0  0  0  0  0  0  0  0  0
   -3.6270    2.9520   -2.8500 H   0  0  0  0  0  0  0  0  0  0  0  0
    2.2720    4.3300    1.4080 H   0  0  0  0  0  0  0  0  0  0  0  0
    0.5490    4.7430    1.5710 H   0  0  0  0  0  0  0  0  0  0  0  0
   -3.2250    1.9940   -6.4870 H   0  0  0  0  0  0  0  0  0  0  0  0
    2.4170    5.8310   -2.0830 H   0  0  0  0  0  0  0  0  0  0  0  0
    3.4060    4.9260   -0.9120 H   0  0  0  0  0  0  0  0  0  0  0  0
    1.9270    6.4190    0.2880 H   0  0  0  0  0  0  0  0  0  0  0  0
    0.5130    5.7850   -0.5890 H   0  0  0  0  0  0  0  0  0  0  0  0
   -0.4180   -0.8950    4.1640 H   0  0  0  0  0  0  0  0  0  0  0  0
   -1.5100   -2.1220    4.8480 H   0  0  0  0  0  0  0  0  0  0  0  0
   -4.3350    4.2360   -4.7640 H   0  0  0  0  0  0  0  0  0  0  0  0
   -4.6970    3.9600   -6.4850 H   0  0  0  0  0  0  0  0  0  0  0  0
   -3.0450    4.3900   -5.9800 H   0  0  0  0  0  0  0  0  0  0  0  0
   -5.2770    1.8930   -4.2490 H   0  0  0  0  0  0  0  0  0  0  0  0
   -4.6110    0.4930   -5.1240 H   0  0  0  0  0  0  0  0  0  0  0  0
   -5.6100    1.6890   -5.9850 H   0  0  0  0  0  0  0  0  0  0  0  0
   -2.3510    0.2450    3.1340 H   0  0  0  0  0  0  0  0  0  0  0  0
   -2.5320    0.1180    4.9000 H   0  0  0  0  0  0  0  0  0  0  0  0
   -3.4400   -0.9780    3.8320 H   0  0  0  0  0  0  0  0  0  0  0  0
  1  2  2  0  0  0  0
  1  3  1  0  0  0  0
  1  8  1  0  0  0  0
  2  4  1  0  0  0  0
  2  7  1  0  0  0  0
  3 10  2  0  0  0  0
  4  5  1  0  0  0  0
  4 13  2  0  0  0  0
  5 10  1  0  0  0  0
  5 29  1  0  0  0  0
  6  7  1  0  0  0  0
  6  9  2  0  0  0  0
  6 11  1  0  0  0  0
  7 12  1  0  0  0  0
  7 30  1  6  0  0  0
  8  9  1  0  0  0  0
  8 31  1  0  0  0  0
  9 21  1  0  0  0  0
 10 15  1  0  0  0  0
 11 16  2  0  0  0  0
 11 23  1  0  0  0  0
 12 17  2  0  0  0  0
 12 18  1  0  0  0  0
 14 19  2  0  0  0  0
 14 20  1  0  0  0  0
 14 22  1  0  0  0  0
 15 25  1  0  0  0  0
 17 19  1  0  0  0  0
 17 32  1  0  0  0  0
 18 20  2  0  0  0  0
 18 33  1  0  0  0  0
 19 34  1  0  0  0  0
 20 35  1  0  0  0  0
 21 24  1  0  0  0  0
 21 36  1  0  0  0  0
 21 37  1  0  0  0  0
 22 26  1  0  0  0  0
 22 27  1  0  0  0  0
 22 38  1  0  0  0  0
 23 24  1  0  0  0  0
 23 39  1  0  0  0  0
 23 40  1  0  0  0  0
 24 41  1  0  0  0  0
 24 42  1  0  0  0  0
 25 28  1  0  0  0  0
 25 43  1  0  0  0  0
 25 44  1  0  0  0  0
 26 45  1  0  0  0  0
 26 46  1  0  0  0  0
 26 47  1  0  0  0  0
 27 48  1  0  0  0  0
 27 49  1  0  0  0  0
 27 50  1  0  0  0  0
 28 51  1  0  0  0  0
 28 52  1  0  0  0  0
 28 53  1  0  0  0  0
M  END
>  <$CLUSTER>
606

>  <INDEX>
274978

$$$$
Life Chemicals F0642-0697
 OpenBabel04062209303D

 37 39  0  0  0  0  0  0  0  0999 V2000
   -1.1660    0.9650    0.4690 N   0  0  0  0  0  0  0  0  0  0  0  0
   -0.8780   -0.3200    0.3930 C   0  0  0  0  0  0  0  0  0  0  0  0
   -2.5280    1.1580    0.3500 C   0  0  0  0  0  0  0  0  0  0  0  0
   -2.2540   -1.3490    0.1750 S   0  0  0  0  0  0  0  0  0  0  0  0
   -3.2800    0.0190    0.1840 C   0  0  0  0  0  0  0  0  0  0  0  0
    2.4910   -0.2310   -0.3130 C   0  0  0  0  0  0  0  0  0  0  0  0
    1.4950   -0.1210    0.6340 N   0  0  0  0  0  0  0  0  0  0  0  0
    0.3570   -0.8690    0.4700 N   0  0  0  0  0  0  0  0  0  0  0  0
    3.6780    0.6410   -0.0040 C   0  0  0  0  0  0  0  0  0  0  0  0
   -3.1780    2.4340    0.3890 C   0  0  0  0  0  0  0  0  0  0  0  0
    2.4690   -0.9660   -1.2980 O   0  0  0  0  0  0  0  0  0  0  0  0
    4.4860    1.0010   -1.1230 C   0  0  0  0  0  0  0  0  0  0  0  0
    4.0370    1.0480    1.2540 C   0  0  0  0  0  0  0  0  0  0  0  0
    5.9560    2.2200    0.3580 C   0  0  0  0  0  0  0  0  0  0  0  0
    5.6150    1.7980   -0.9260 C   0  0  0  0  0  0  0  0  0  0  0  0
    5.1690    1.8440    1.4460 C   0  0  0  0  0  0  0  0  0  0  0  0
    7.0460    2.9810    0.4590 F   0  0  0  0  0  0  0  0  0  0  0  0
   -2.3780    3.5340    0.5560 O   0  0  0  0  0  0  0  0  0  0  0  0
   -4.6810    0.0520    0.0480 C   0  0  0  0  0  0  0  0  0  0  0  0
   -5.3100    1.2960    0.0860 C   0  0  0  0  0  0  0  0  0  0  0  0
   -4.5750    2.4680    0.2520 C   0  0  0  0  0  0  0  0  0  0  0  0
   -3.0140    4.8110    0.5960 C   0  0  0  0  0  0  0  0  0  0  0  0
   -1.9370    5.8620    0.7880 C   0  0  0  0  0  0  0  0  0  0  0  0
    1.6010    0.4940    1.4280 H   0  0  0  0  0  0  0  0  0  0  0  0
    0.4440   -1.8730    0.4040 H   0  0  0  0  0  0  0  0  0  0  0  0
    4.2260    0.6600   -2.1140 H   0  0  0  0  0  0  0  0  0  0  0  0
    3.4400    0.7510    2.1040 H   0  0  0  0  0  0  0  0  0  0  0  0
    6.2250    2.0880   -1.7690 H   0  0  0  0  0  0  0  0  0  0  0  0
    5.4360    2.1690    2.4410 H   0  0  0  0  0  0  0  0  0  0  0  0
   -5.2500   -0.8570   -0.0820 H   0  0  0  0  0  0  0  0  0  0  0  0
   -6.3840    1.3520   -0.0150 H   0  0  0  0  0  0  0  0  0  0  0  0
   -5.0880    3.4180    0.2760 H   0  0  0  0  0  0  0  0  0  0  0  0
   -3.7190    4.8480    1.4260 H   0  0  0  0  0  0  0  0  0  0  0  0
   -3.5440    4.9900   -0.3390 H   0  0  0  0  0  0  0  0  0  0  0  0
   -1.4110    5.6770    1.7250 H   0  0  0  0  0  0  0  0  0  0  0  0
   -2.3950    6.8510    0.8180 H   0  0  0  0  0  0  0  0  0  0  0  0
   -1.2310    5.8140   -0.0410 H   0  0  0  0  0  0  0  0  0  0  0  0
  1  2  2  0  0  0  0
  1  3  1  0  0  0  0
  2  4  1  0  0  0  0
  2  8  1  0  0  0  0
  3  5  2  0  0  0  0
  3 10  1  0  0  0  0
  4  5  1  0  0  0  0
  5 19  1  0  0  0  0
  6  7  1  0  0  0  0
  6  9  1  0  0  0  0
  6 11  2  0  0  0  0
  7  8  1  0  0  0  0
  7 24  1  0  0  0  0
  8 25  1  0  0  0  0
  9 12  2  0  0  0  0
  9 13  1  0  0  0  0
 10 18  1  0  0  0  0
 10 21  2  0  0  0  0
 12 15  1  0  0  0  0
 12 26  1  0  0  0  0
 13 16  2  0  0  0  0
 13 27  1  0  0  0  0
 14 15  2  0  0  0  0
 14 16  1  0  0  0  0
 14 17  1  0  0  0  0
 15 28  1  0  0  0  0
 16 29  1  0  0  0  0
 18 22  1  0  0  0  0
 19 20  2  0  0  0  0
 19 30  1  0  0  0  0
 20 21  1  0  0  0  0
 20 31  1  0  0  0  0
 21 32  1  0  0  0  0
 22 23  1  0  0  0  0
 22 33  1  0  0  0  0
 22 34  1  0  0  0  0
 23 35  1  0  0  0  0
 23 36  1  0  0  0  0
 23 37  1  0  0  0  0
M  END
>  <$CLUSTER>
735

>  <INDEX>
280059

$$$$
Chem T&I AMSACS-26179
 OpenBabel04062209303D

 38 39  0  0  0  0  0  0  0  0999 V2000
    1.6960    1.3810   -0.0550 S   0  0  0  0  0  0  0  0  0  0  0  0
    0.7910    0.3800    0.9780 N   0  0  0  0  0  0  0  0  0  0  0  0
   -0.3090   -0.4030    0.4890 C   0  0  0  0  0  0  0  0  0  0  0  0
    0.5040    2.6520   -0.4140 C   0  0  0  0  0  0  0  0  0  0  0  0
   -0.3890   -0.6460   -0.8370 N   0  0  0  0  0  0  0  0  0  0  0  0
    2.0190    0.6980   -1.2910 O   0  0  0  0  0  0  0  0  0  0  0  0
    2.7450    2.0020    0.7340 O   0  0  0  0  0  0  0  0  0  0  0  0
    0.4160    3.7690    0.4010 C   0  0  0  0  0  0  0  0  0  0  0  0
   -0.5120    4.7640    0.0910 C   0  0  0  0  0  0  0  0  0  0  0  0
   -1.3990   -1.4410   -1.2570 C   0  0  0  0  0  0  0  0  0  0  0  0
   -1.3360    4.6310   -1.0270 C   0  0  0  0  0  0  0  0  0  0  0  0
   -0.3090    2.5020   -1.5400 C   0  0  0  0  0  0  0  0  0  0  0  0
   -1.1790   -0.9640    1.4170 C   0  0  0  0  0  0  0  0  0  0  0  0
   -1.2340    3.5020   -1.8410 C   0  0  0  0  0  0  0  0  0  0  0  0
   -2.2060   -1.7790    0.9500 C   0  0  0  0  0  0  0  0  0  0  0  0
   -2.3270   -2.0250   -0.4120 C   0  0  0  0  0  0  0  0  0  0  0  0
   -0.6290    5.9770    0.9560 C   0  0  0  0  0  0  0  0  0  0  0  0
   -2.3260    5.7020   -1.3490 C   0  0  0  0  0  0  0  0  0  0  0  0
   -1.4970   -1.6910   -2.7350 C   0  0  0  0  0  0  0  0  0  0  0  0
   -3.1710   -2.3840    1.9160 C   0  0  0  0  0  0  0  0  0  0  0  0
    1.0320    0.3350    1.9580 H   0  0  0  0  0  0  0  0  0  0  0  0
    1.0570    3.8680    1.2650 H   0  0  0  0  0  0  0  0  0  0  0  0
   -0.2230    1.6270   -2.1670 H   0  0  0  0  0  0  0  0  0  0  0  0
   -1.0610   -0.7720    2.4730 H   0  0  0  0  0  0  0  0  0  0  0  0
   -1.8730    3.4020   -2.7060 H   0  0  0  0  0  0  0  0  0  0  0  0
   -3.1180   -2.6510   -0.7980 H   0  0  0  0  0  0  0  0  0  0  0  0
    0.0870    5.9090    1.7750 H   0  0  0  0  0  0  0  0  0  0  0  0
   -1.6390    6.0390    1.3610 H   0  0  0  0  0  0  0  0  0  0  0  0
   -0.4200    6.8680    0.3630 H   0  0  0  0  0  0  0  0  0  0  0  0
   -2.2570    6.4960   -0.6050 H   0  0  0  0  0  0  0  0  0  0  0  0
   -3.3320    5.2820   -1.3400 H   0  0  0  0  0  0  0  0  0  0  0  0
   -2.1110    6.1100   -2.3370 H   0  0  0  0  0  0  0  0  0  0  0  0
   -0.6950   -1.1600   -3.2470 H   0  0  0  0  0  0  0  0  0  0  0  0
   -2.4600   -1.3350   -3.1010 H   0  0  0  0  0  0  0  0  0  0  0  0
   -1.4070   -2.7600   -2.9290 H   0  0  0  0  0  0  0  0  0  0  0  0
   -2.9120   -2.0760    2.9290 H   0  0  0  0  0  0  0  0  0  0  0  0
   -3.1250   -3.4710    1.8440 H   0  0  0  0  0  0  0  0  0  0  0  0
   -4.1800   -2.0470    1.6800 H   0  0  0  0  0  0  0  0  0  0  0  0
  1  2  1  0  0  0  0
  1  4  1  0  0  0  0
  1  6  2  0  0  0  0
  1  7  2  0  0  0  0
  2  3  1  0  0  0  0
  2 21  1  0  0  0  0
  3  5  2  0  0  0  0
  3 13  1  0  0  0  0
  4  8  1  0  0  0  0
  4 12  2  0  0  0  0
  5 10  1  0  0  0  0
  8  9  2  0  0  0  0
  8 22  1  0  0  0  0
  9 11  1  0  0  0  0
  9 17  1  0  0  0  0
 10 16  2  0  0  0  0
 10 19  1  0  0  0  0
 11 14  2  0  0  0  0
 11 18  1  0  0  0  0
 12 14  1  0  0  0  0
 12 23  1  0  0  0  0
 13 15  2  0  0  0  0
 13 24  1  0  0  0  0
 14 25  1  0  0  0  0
 15 16  1  0  0  0  0
 15 20  1  0  0  0  0
 16 26  1  0  0  0  0
 17 27  1  0  0  0  0
 17 28  1  0  0  0  0
 17 29  1  0  0  0  0
 18 30  1  0  0  0  0
 18 31  1  0  0  0  0
 18 32  1  0  0  0  0
 19 33  1  0  0  0  0
 19 34  1  0  0  0  0
 19 35  1  0  0  0  0
 20 36  1  0  0  0  0
 20 37  1  0  0  0  0
 20 38  1  0  0  0  0
M  END
>  <$CLUSTER>
688

>  <INDEX>
523713

$$$$
Tripos 1527-02989
 OpenBabel04062209303D

 34 35  0  0  0  0  0  0  0  0999 V2000
   -2.3160    0.0880   -0.5130 C   0  0  0  0  0  0  0  0  0  0  0  0
    2.6180   -0.0790   -0.3030 C   0  0  0  0  0  0  0  0  0  0  0  0
    1.3950    0.2080   -0.9120 C   0  0  0  0  0  0  0  0  0  0  0  0
   -1.0050    0.2590   -0.9460 N   0  0  0  0  0  0  0  0  0  0  0  0
    0.1850   -0.0640   -0.2540 C   0  0  0  0  0  0  0  0  0  0  0  0
    2.6480   -0.6400    0.9700 C   0  0  0  0  0  0  0  0  0  0  0  0
   -2.6940   -0.3780    0.5580 O   0  0  0  0  0  0  0  0  0  0  0  0
   -3.2200    0.5230   -1.4700 N   0  0  0  0  0  0  0  0  0  0  0  0
    1.4530   -0.9140    1.6320 C   0  0  0  0  0  0  0  0  0  0  0  0
    4.0650    0.2640   -1.1330 Cl  0  0  0  0  0  0  0  0  0  0  0  0
    0.2250   -0.6280    1.0250 C   0  0  0  0  0  0  0  0  0  0  0  0
    3.7690   -0.9440    1.6230 F   0  0  0  0  0  0  0  0  0  0  0  0
   -4.6650    0.4830   -1.3250 C   0  0  0  0  0  0  0  0  0  0  0  0
   -6.7380   -0.9170   -1.6010 C   0  0  0  0  0  0  0  0  0  0  0  0
   -5.2260   -0.8650   -1.7370 C   0  0  0  0  0  0  0  0  0  0  0  0
   -7.5570   -0.5290   -2.6670 C   0  0  0  0  0  0  0  0  0  0  0  0
   -7.3260   -1.3190   -0.3980 C   0  0  0  0  0  0  0  0  0  0  0  0
   -8.7150   -1.3480   -0.2670 C   0  0  0  0  0  0  0  0  0  0  0  0
   -8.9460   -0.5580   -2.5340 C   0  0  0  0  0  0  0  0  0  0  0  0
   -9.5230   -0.9690   -1.3350 C   0  0  0  0  0  0  0  0  0  0  0  0
    1.3800    0.6440   -1.9000 H   0  0  0  0  0  0  0  0  0  0  0  0
   -0.8890    0.6620   -1.8650 H   0  0  0  0  0  0  0  0  0  0  0  0
   -2.8460    0.8950   -2.3310 H   0  0  0  0  0  0  0  0  0  0  0  0
    1.4750   -1.3500    2.6200 H   0  0  0  0  0  0  0  0  0  0  0  0
   -0.6960   -0.8440    1.5470 H   0  0  0  0  0  0  0  0  0  0  0  0
   -5.1060    1.2570   -1.9530 H   0  0  0  0  0  0  0  0  0  0  0  0
   -4.9220    0.6700   -0.2820 H   0  0  0  0  0  0  0  0  0  0  0  0
   -4.7890   -1.6370   -1.1030 H   0  0  0  0  0  0  0  0  0  0  0  0
   -4.9590   -1.0540   -2.7770 H   0  0  0  0  0  0  0  0  0  0  0  0
   -7.1120   -0.2060   -3.5970 H   0  0  0  0  0  0  0  0  0  0  0  0
   -6.7020   -1.6090    0.4340 H   0  0  0  0  0  0  0  0  0  0  0  0
   -9.1630   -1.6650    0.6630 H   0  0  0  0  0  0  0  0  0  0  0  0
   -9.5740   -0.2620   -3.3610 H   0  0  0  0  0  0  0  0  0  0  0  0
  -10.5980   -0.9940   -1.2340 H   0  0  0  0  0  0  0  0  0  0  0  0
  1  4  1  0  0  0  0
  1  7  2  0  0  0  0
  1  8  1  0  0  0  0
  2  3  2  0  0  0  0
  2  6  1  0  0  0  0
  2 10  1  0  0  0  0
  3  5  1  0  0  0  0
  3 21  1  0  0  0  0
  4  5  1  0  0  0  0
  4 22  1  0  0  0  0
  5 11  2  0  0  0  0
  6  9  2  0  0  0  0
  6 12  1  0  0  0  0
  8 13  1  0  0  0  0
  8 23  1  0  0  0  0
  9 11  1  0  0  0  0
  9 24  1  0  0  0  0
 11 25  1  0  0  0  0
 13 15  1  0  0  0  0
 13 26  1  0  0  0  0
 13 27  1  0  0  0  0
 14 15  1  0  0  0  0
 14 16  1  0  0  0  0
 14 17  2  0  0  0  0
 15 28  1  0  0  0  0
 15 29  1  0  0  0  0
 16 19  2  0  0  0  0
 16 30  1  0  0  0  0
 17 18  1  0  0  0  0
 17 31  1  0  0  0  0
 18 20  2  0  0  0  0
 18 32  1  0  0  0  0
 19 20  1  0  0  0  0
 19 33  1  0  0  0  0
 20 34  1  0  0  0  0
M  END
>  <$CLUSTER>
706

>  <INDEX>
449729

$$$$
Enamine T0503-9700
 OpenBabel04062209303D

 43 45  0  0  0  0  0  0  0  0999 V2000
   -5.9720    0.5500   -2.6220 N   0  0  0  0  0  0  0  0  0  0  0  0
   -5.1460    1.5820   -2.9750 C   0  0  0  0  0  0  0  0  0  0  0  0
   -4.0560    0.1650   -1.6450 C   0  0  0  0  0  0  0  0  0  0  0  0
   -5.3060   -0.3280   -1.8010 C   0  0  0  0  0  0  0  0  0  0  0  0
    0.8240    0.9250   -0.2860 N   0  0  0  0  0  0  0  0  0  0  0  0
   -3.9270    1.3660   -2.3730 C   0  0  0  0  0  0  0  0  0  0  0  0
    0.3700   -0.2220    0.2840 C   0  0  0  0  0  0  0  0  0  0  0  0
    2.1050    1.2770   -0.0270 C   0  0  0  0  0  0  0  0  0  0  0  0
    1.1370   -1.0050    1.0810 N   0  0  0  0  0  0  0  0  0  0  0  0
    2.9540    0.5420    0.7700 C   0  0  0  0  0  0  0  0  0  0  0  0
   -1.8080    0.0540   -0.7210 N   0  0  0  0  0  0  0  0  0  0  0  0
    2.4090   -0.6030    1.3040 C   0  0  0  0  0  0  0  0  0  0  0  0
   -7.3730    0.4750   -3.0710 C   0  0  0  0  0  0  0  0  0  0  0  0
   -2.9860   -0.4830   -0.8200 C   0  0  0  0  0  0  0  0  0  0  0  0
   -0.9470   -0.6500    0.0610 N   0  0  0  0  0  0  0  0  0  0  0  0
    2.5540    2.4410   -0.6100 O   0  0  0  0  0  0  0  0  0  0  0  0
   -5.4580    2.7980   -3.8110 C   0  0  0  0  0  0  0  0  0  0  0  0
   -5.9730   -1.5430   -1.2680 C   0  0  0  0  0  0  0  0  0  0  0  0
    3.2700   -1.5090    2.2160 C   0  0  0  0  0  0  0  0  0  0  0  0
   -7.7110    0.7200   -4.4070 C   0  0  0  0  0  0  0  0  0  0  0  0
   -8.3760    0.1240   -2.1580 C   0  0  0  0  0  0  0  0  0  0  0  0
   -9.7020    0.0190   -2.5820 C   0  0  0  0  0  0  0  0  0  0  0  0
   -9.0390    0.6110   -4.8240 C   0  0  0  0  0  0  0  0  0  0  0  0
  -10.0340    0.2620   -3.9130 C   0  0  0  0  0  0  0  0  0  0  0  0
   -3.0490    1.9900   -2.4440 H   0  0  0  0  0  0  0  0  0  0  0  0
    3.9730    0.8420    0.9620 H   0  0  0  0  0  0  0  0  0  0  0  0
   -3.1970   -1.4070   -0.3020 H   0  0  0  0  0  0  0  0  0  0  0  0
   -1.2650   -1.5060    0.4940 H   0  0  0  0  0  0  0  0  0  0  0  0
    3.4650    2.6690   -0.4120 H   0  0  0  0  0  0  0  0  0  0  0  0
   -6.4840    2.7360   -4.1740 H   0  0  0  0  0  0  0  0  0  0  0  0
   -4.7740    2.8410   -4.6590 H   0  0  0  0  0  0  0  0  0  0  0  0
   -5.3410    3.6960   -3.2040 H   0  0  0  0  0  0  0  0  0  0  0  0
   -7.0000   -1.5830   -1.6320 H   0  0  0  0  0  0  0  0  0  0  0  0
   -5.9750   -1.5080   -0.1790 H   0  0  0  0  0  0  0  0  0  0  0  0
   -5.4340   -2.4300   -1.6020 H   0  0  0  0  0  0  0  0  0  0  0  0
    2.6770   -2.3630    2.5440 H   0  0  0  0  0  0  0  0  0  0  0  0
    3.6000   -0.9410    3.0860 H   0  0  0  0  0  0  0  0  0  0  0  0
    4.1390   -1.8620    1.6610 H   0  0  0  0  0  0  0  0  0  0  0  0
   -6.9440    0.9940   -5.1160 H   0  0  0  0  0  0  0  0  0  0  0  0
   -8.1230   -0.0660   -1.1250 H   0  0  0  0  0  0  0  0  0  0  0  0
  -10.4730   -0.2520   -1.8760 H   0  0  0  0  0  0  0  0  0  0  0  0
   -9.2960    0.7980   -5.8560 H   0  0  0  0  0  0  0  0  0  0  0  0
  -11.0610    0.1800   -4.2380 H   0  0  0  0  0  0  0  0  0  0  0  0
  1  2  1  0  0  0  0
  1  4  1  0  0  0  0
  1 13  1  0  0  0  0
  2  6  2  0  0  0  0
  2 17  1  0  0  0  0
  3  4  2  0  0  0  0
  3  6  1  0  0  0  0
  3 14  1  0  0  0  0
  4 18  1  0  0  0  0
  5  7  2  0  0  0  0
  5  8  1  0  0  0  0
  6 25  1  0  0  0  0
  7  9  1  0  0  0  0
  7 15  1  0  0  0  0
  8 10  2  0  0  0  0
  8 16  1  0  0  0  0
  9 12  2  0  0  0  0
 10 12  1  0  0  0  0
 10 26  1  0  0  0  0
 11 14  2  0  0  0  0
 11 15  1  0  0  0  0
 12 19  1  0  0  0  0
 13 20  1  0  0  0  0
 13 21  2  0  0  0  0
 14 27  1  0  0  0  0
 15 28  1  0  0  0  0
 16 29  1  0  0  0  0
 17 30  1  0  0  0  0
 17 31  1  0  0  0  0
 17 32  1  0  0  0  0
 18 33  1  0  0  0  0
 18 34  1  0  0  0  0
 18 35  1  0  0  0  0
 19 36  1  0  0  0  0
 19 37  1  0  0  0  0
 19 38  1  0  0  0  0
 20 23  2  0  0  0  0
 20 39  1  0  0  0  0
 21 22  1  0  0  0  0
 21 40  1  0  0  0  0
 22 24  2  0  0  0  0
 22 41  1  0  0  0  0
 23 24  1  0  0  0  0
 23 42  1  0  0  0  0
 24 43  1  0  0  0  0
M  END
>  <$CLUSTER>
626

>  <INDEX>
409469

$$$$
Tripos 1513-09513
 OpenBabel04062209303D

 52 54  0  0  1  0  0  0  0  0999 V2000
    3.3070    3.2860   -0.9430 S   0  0  0  0  0  0  0  0  0  0  0  0
    1.9470    2.3260   -0.7160 N   0  0  0  0  0  0  0  0  0  0  0  0
   -0.0450    0.2380   -0.1700 N   0  0  0  0  0  0  0  0  0  0  0  0
    1.6320    1.8820    0.6670 C   0  0  0  0  0  0  0  0  0  0  0  0
    0.2090    1.2990    0.8370 C   0  0  1  0  0  0  0  0  0  0  0  0
   -0.7050   -0.9670    0.1510 C   0  0  0  0  0  0  0  0  0  0  0  0
    1.8960    4.5610   -1.4050 C   0  0  0  0  0  0  0  0  0  0  0  0
    1.7480    1.1760   -1.6350 C   0  0  0  0  0  0  0  0  0  0  0  0
    0.3460    0.5430   -1.5620 C   0  0  0  0  0  0  0  0  0  0  0  0
    3.8510    3.8470    0.2280 O   0  0  0  0  0  0  0  0  0  0  0  0
    3.9710    3.1110   -2.1720 O   0  0  0  0  0  0  0  0  0  0  0  0
   -0.9920    8.3110   -3.7130 C   0  0  0  0  0  0  0  0  0  0  0  0
   -0.4950    7.9250   -2.4760 N   0  0  0  0  0  0  0  0  0  0  0  0
   -1.5460   -1.6090   -0.7770 C   0  0  0  0  0  0  0  0  0  0  0  0
   -0.8220    7.7640   -4.7990 O   0  0  0  0  0  0  0  0  0  0  0  0
    1.6320    4.8590   -2.7840 C   0  0  0  0  0  0  0  0  0  0  0  0
    1.5540    5.6060   -0.4750 C   0  0  0  0  0  0  0  0  0  0  0  0
    0.3040    6.7860   -2.1760 C   0  0  0  0  0  0  0  0  0  0  0  0
   -2.2080   -2.8010   -0.4690 C   0  0  0  0  0  0  0  0  0  0  0  0
    0.7710    5.8970   -3.1450 C   0  0  0  0  0  0  0  0  0  0  0  0
    0.6930    6.6420   -0.8440 C   0  0  0  0  0  0  0  0  0  0  0  0
   -0.5570   -1.5850    1.4060 C   0  0  0  0  0  0  0  0  0  0  0  0
   -0.8700    2.3810    0.7090 C   0  0  0  0  0  0  0  0  0  0  0  0
   -1.2150   -2.7790    1.7190 C   0  0  0  0  0  0  0  0  0  0  0  0
   -1.8290    9.5600   -3.6000 C   0  0  0  0  0  0  0  0  0  0  0  0
   -2.0430   -3.3880    0.7810 C   0  0  0  0  0  0  0  0  0  0  0  0
   -3.0950   -3.4450   -1.4850 C   0  0  0  0  0  0  0  0  0  0  0  0
    1.7320    2.7390    1.3320 H   0  0  0  0  0  0  0  0  0  0  0  0
    2.3520    1.1150    0.9520 H   0  0  0  0  0  0  0  0  0  0  0  0
    0.1570    0.8760    1.8400 H   0  0  0  0  0  0  0  0  0  0  0  0
    2.4820    0.4090   -1.3870 H   0  0  0  0  0  0  0  0  0  0  0  0
    1.9140    1.5210   -2.6550 H   0  0  0  0  0  0  0  0  0  0  0  0
   -0.3780    1.2380   -1.9880 H   0  0  0  0  0  0  0  0  0  0  0  0
    0.3450   -0.3810   -2.1400 H   0  0  0  0  0  0  0  0  0  0  0  0
   -0.7280    8.5230   -1.6960 H   0  0  0  0  0  0  0  0  0  0  0  0
   -1.6840   -1.1690   -1.7540 H   0  0  0  0  0  0  0  0  0  0  0  0
    2.1070    4.2710   -3.5550 H   0  0  0  0  0  0  0  0  0  0  0  0
    1.9690    5.5880    0.5220 H   0  0  0  0  0  0  0  0  0  0  0  0
    0.4660    6.0120   -4.1750 H   0  0  0  0  0  0  0  0  0  0  0  0
    0.3280    7.3320   -0.0980 H   0  0  0  0  0  0  0  0  0  0  0  0
    0.0810   -1.1260    2.1470 H   0  0  0  0  0  0  0  0  0  0  0  0
   -0.8320    2.8150   -0.2900 H   0  0  0  0  0  0  0  0  0  0  0  0
   -0.6930    3.1600    1.4510 H   0  0  0  0  0  0  0  0  0  0  0  0
   -1.8510    1.9370    0.8750 H   0  0  0  0  0  0  0  0  0  0  0  0
   -1.0800   -3.2290    2.6910 H   0  0  0  0  0  0  0  0  0  0  0  0
   -1.8560    9.8860   -2.5600 H   0  0  0  0  0  0  0  0  0  0  0  0
   -2.8430    9.3500   -3.9420 H   0  0  0  0  0  0  0  0  0  0  0  0
   -1.3930   10.3460   -4.2160 H   0  0  0  0  0  0  0  0  0  0  0  0
   -2.5530   -4.3090    1.0220 H   0  0  0  0  0  0  0  0  0  0  0  0
   -3.1000   -2.8460   -2.3950 H   0  0  0  0  0  0  0  0  0  0  0  0
   -4.1090   -3.5140   -1.0900 H   0  0  0  0  0  0  0  0  0  0  0  0
   -2.7230   -4.4450   -1.7100 H   0  0  0  0  0  0  0  0  0  0  0  0
  1  2  1  0  0  0  0
  1  7  1  0  0  0  0
  1 10  2  0  0  0  0
  1 11  2  0  0  0  0
  2  4  1  0  0  0  0
  2  8  1  0  0  0  0
  3  5  1  0  0  0  0
  3  6  1  0  0  0  0
  3  9  1  0  0  0  0
  4  5  1  0  0  0  0
  4 28  1  0  0  0  0
  4 29  1  0  0  0  0
  5 23  1  0  0  0  0
  5 30  1  1  0  0  0
  6 14  2  0  0  0  0
  6 22  1  0  0  0  0
  7 16  2  0  0  0  0
  7 17  1  0  0  0  0
  8  9  1  0  0  0  0
  8 31  1  0  0  0  0
  8 32  1  0  0  0  0
  9 33  1  0  0  0  0
  9 34  1  0  0  0  0
 12 13  1  0  0  0  0
 12 15  2  0  0  0  0
 12 25  1  0  0  0  0
 13 18  1  0  0  0  0
 13 35  1  0  0  0  0
 14 19  1  0  0  0  0
 14 36  1  0  0  0  0
 16 20  1  0  0  0  0
 16 37  1  0  0  0  0
 17 21  2  0  0  0  0
 17 38  1  0  0  0  0
 18 20  2  0  0  0  0
 18 21  1  0  0  0  0
 19 26  2  0  0  0  0
 19 27  1  0  0  0  0
 20 39  1  0  0  0  0
 21 40  1  0  0  0  0
 22 24  2  0  0  0  0
 22 41  1  0  0  0  0
 23 42  1  0  0  0  0
 23 43  1  0  0  0  0
 23 44  1  0  0  0  0
 24 26  1  0  0  0  0
 24 45  1  0  0  0  0
 25 46  1  0  0  0  0
 25 47  1  0  0  0  0
 25 48  1  0  0  0  0
 26 49  1  0  0  0  0
 27 50  1  0  0  0  0
 27 51  1  0  0  0  0
 27 52  1  0  0  0  0
M  END
>  <$CLUSTER>
690

>  <INDEX>
441294

$$$$
Chembridge 7916788
 OpenBabel04062209303D

 38 39  0  0  0  0  0  0  0  0999 V2000
    0.5050    2.0520   -0.7350 S   0  0  0  0  0  0  0  0  0  0  0  0
    0.6050    0.4240   -1.2640 N   0  0  0  0  0  0  0  0  0  0  0  0
    1.6930    2.0340    0.5890 C   0  0  0  0  0  0  0  0  0  0  0  0
    1.0520    2.8960   -1.7810 O   0  0  0  0  0  0  0  0  0  0  0  0
   -0.7960    2.3370   -0.1630 O   0  0  0  0  0  0  0  0  0  0  0  0
    1.2650    1.7540    1.9030 C   0  0  0  0  0  0  0  0  0  0  0  0
    3.0340    2.3720    0.3590 C   0  0  0  0  0  0  0  0  0  0  0  0
    0.0220   -0.5940   -0.4320 C   0  0  0  0  0  0  0  0  0  0  0  0
    3.5180    2.0990    2.7120 C   0  0  0  0  0  0  0  0  0  0  0  0
    4.6380    2.1430    4.1220 S   0  0  0  0  0  0  0  0  0  0  0  0
   -1.0630   -2.5590    1.2270 C   0  0  0  0  0  0  0  0  0  0  0  0
    2.1810    1.7790    2.9560 C   0  0  0  0  0  0  0  0  0  0  0  0
    3.9440    2.3950    1.4160 C   0  0  0  0  0  0  0  0  0  0  0  0
    0.8630   -1.5010    0.2200 C   0  0  0  0  0  0  0  0  0  0  0  0
   -1.3610   -0.6700   -0.2530 C   0  0  0  0  0  0  0  0  0  0  0  0
    0.3180   -2.4830    1.0480 C   0  0  0  0  0  0  0  0  0  0  0  0
   -1.9010   -1.6540    0.5760 C   0  0  0  0  0  0  0  0  0  0  0  0
   -1.4770   -3.5710    2.0670 O   0  0  0  0  0  0  0  0  0  0  0  0
    6.1200    1.3660    3.4240 C   0  0  0  0  0  0  0  0  0  0  0  0
   -2.8810   -3.6990    2.2890 C   0  0  0  0  0  0  0  0  0  0  0  0
   -3.0990   -4.8660    3.2360 C   0  0  0  0  0  0  0  0  0  0  0  0
    1.0600    0.1870   -2.1340 H   0  0  0  0  0  0  0  0  0  0  0  0
    0.2280    1.5200    2.0950 H   0  0  0  0  0  0  0  0  0  0  0  0
    3.3640    2.6150   -0.6400 H   0  0  0  0  0  0  0  0  0  0  0  0
    1.8550    1.5510    3.9600 H   0  0  0  0  0  0  0  0  0  0  0  0
    4.9790    2.6420    1.2320 H   0  0  0  0  0  0  0  0  0  0  0  0
    1.9330   -1.4420    0.0830 H   0  0  0  0  0  0  0  0  0  0  0  0
   -2.0110    0.0310   -0.7550 H   0  0  0  0  0  0  0  0  0  0  0  0
    0.9660   -3.1850    1.5510 H   0  0  0  0  0  0  0  0  0  0  0  0
   -2.9700   -1.7150    0.7140 H   0  0  0  0  0  0  0  0  0  0  0  0
    6.9000    1.3240    4.1840 H   0  0  0  0  0  0  0  0  0  0  0  0
    6.4710    1.9510    2.5740 H   0  0  0  0  0  0  0  0  0  0  0  0
    5.8790    0.3550    3.0940 H   0  0  0  0  0  0  0  0  0  0  0  0
   -3.3900   -3.8890    1.3440 H   0  0  0  0  0  0  0  0  0  0  0  0
   -3.2710   -2.7830    2.7340 H   0  0  0  0  0  0  0  0  0  0  0  0
   -2.7070   -5.7780    2.7850 H   0  0  0  0  0  0  0  0  0  0  0  0
   -4.1660   -4.9840    3.4270 H   0  0  0  0  0  0  0  0  0  0  0  0
   -2.5810   -4.6730    4.1750 H   0  0  0  0  0  0  0  0  0  0  0  0
  1  2  1  0  0  0  0
  1  3  1  0  0  0  0
  1  4  2  0  0  0  0
  1  5  2  0  0  0  0
  2  8  1  0  0  0  0
  2 22  1  0  0  0  0
  3  6  2  0  0  0  0
  3  7  1  0  0  0  0
  6 12  1  0  0  0  0
  6 23  1  0  0  0  0
  7 13  2  0  0  0  0
  7 24  1  0  0  0  0
  8 14  2  0  0  0  0
  8 15  1  0  0  0  0
  9 10  1  0  0  0  0
  9 12  2  0  0  0  0
  9 13  1  0  0  0  0
 10 19  1  0  0  0  0
 11 16  2  0  0  0  0
 11 17  1  0  0  0  0
 11 18  1  0  0  0  0
 12 25  1  0  0  0  0
 13 26  1  0  0  0  0
 14 16  1  0  0  0  0
 14 27  1  0  0  0  0
 15 17  2  0  0  0  0
 15 28  1  0  0  0  0
 16 29  1  0  0  0  0
 17 30  1  0  0  0  0
 18 20  1  0  0  0  0
 19 31  1  0  0  0  0
 19 32  1  0  0  0  0
 19 33  1  0  0  0  0
 20 21  1  0  0  0  0
 20 34  1  0  0  0  0
 20 35  1  0  0  0  0
 21 36  1  0  0  0  0
 21 37  1  0  0  0  0
 21 38  1  0  0  0  0
M  END
>  <$CLUSTER>
716

>  <INDEX>
90607

$$$$
Asinex ASN 03798095
 OpenBabel04062209303D

 59 61  0  0  0  0  0  0  0  0999 V2000
    4.5300    0.8640   -0.3350 S   0  0  0  0  0  0  0  0  0  0  0  0
    4.6310    1.6840   -1.7910 N   0  0  0  0  0  0  0  0  0  0  0  0
    2.8270    0.4420   -0.2290 C   0  0  0  0  0  0  0  0  0  0  0  0
   -2.3130    0.0020    0.6070 C   0  0  0  0  0  0  0  0  0  0  0  0
   -4.0200   -0.9960   -0.9450 N   0  3  1  0  0  0  0  0  0  0  0  0
    4.8370    1.8120    0.7230 O   0  0  0  0  0  0  0  0  0  0  0  0
    5.3060   -0.3560   -0.4630 O   0  0  0  0  0  0  0  0  0  0  0  0
   -1.2330   -0.6810    0.0630 N   0  0  0  0  0  0  0  0  0  0  0  0
    4.4430    0.9030   -3.0430 C   0  0  0  0  0  0  0  0  0  0  0  0
    3.9870    3.0210   -1.8840 C   0  0  0  0  0  0  0  0  0  0  0  0
   -3.5840   -0.8020    0.4840 C   0  0  0  0  0  0  0  0  0  0  0  0
   -2.3190    1.1090    1.1340 O   0  0  0  0  0  0  0  0  0  0  0  0
    1.9250    1.3180    0.3700 C   0  0  0  0  0  0  0  0  0  0  0  0
    2.3780   -0.7810   -0.7190 C   0  0  0  0  0  0  0  0  0  0  0  0
    0.1130   -0.2500   -0.0060 C   0  0  0  0  0  0  0  0  0  0  0  0
   -5.0420   -2.0820   -1.0840 C   0  0  0  0  0  0  0  0  0  0  0  0
   -4.4860    0.2770   -1.6090 C   0  0  0  0  0  0  0  0  0  0  0  0
    1.0300   -1.1250   -0.6080 C   0  0  0  0  0  0  0  0  0  0  0  0
    0.5730    0.9760    0.4830 C   0  0  0  0  0  0  0  0  0  0  0  0
    4.4550    3.8120   -3.1010 C   0  0  0  0  0  0  0  0  0  0  0  0
    4.9190    1.6590   -4.2800 C   0  0  0  0  0  0  0  0  0  0  0  0
   -5.3620   -2.3490   -2.5500 C   0  0  0  0  0  0  0  0  0  0  0  0
   -4.7890    0.0500   -3.0690 C   0  0  0  0  0  0  0  0  0  0  0  0
    4.2550    3.0320   -4.4020 C   0  0  2  0  0  0  0  0  0  0  0  0
   -5.8200   -1.0700   -3.2620 C   0  0  1  0  0  0  0  0  0  0  0  0
    4.8060    3.8050   -5.5980 C   0  0  0  0  0  0  0  0  0  0  0  0
   -6.0700   -1.3320   -4.7470 C   0  0  0  0  0  0  0  0  0  0  0  0
   -3.1880   -1.2890   -1.4380 H   0  0  0  0  0  0  0  0  0  0  0  0
   -1.4310   -1.5910   -0.3290 H   0  0  0  0  0  0  0  0  0  0  0  0
    3.3830    0.6770   -3.1580 H   0  0  0  0  0  0  0  0  0  0  0  0
    5.0060   -0.0270   -2.9630 H   0  0  0  0  0  0  0  0  0  0  0  0
    4.2280    3.5880   -0.9850 H   0  0  0  0  0  0  0  0  0  0  0  0
    2.9070    2.8850   -1.9500 H   0  0  0  0  0  0  0  0  0  0  0  0
   -4.3770   -0.2830    1.0220 H   0  0  0  0  0  0  0  0  0  0  0  0
   -3.4210   -1.7810    0.9340 H   0  0  0  0  0  0  0  0  0  0  0  0
    2.2720    2.2680    0.7500 H   0  0  0  0  0  0  0  0  0  0  0  0
    3.0730   -1.4640   -1.1850 H   0  0  0  0  0  0  0  0  0  0  0  0
   -5.9540   -1.7800   -0.5700 H   0  0  0  0  0  0  0  0  0  0  0  0
   -4.6550   -2.9950   -0.6320 H   0  0  0  0  0  0  0  0  0  0  0  0
   -3.7040    1.0310   -1.5210 H   0  0  0  0  0  0  0  0  0  0  0  0
   -5.3880    0.6290   -1.1090 H   0  0  0  0  0  0  0  0  0  0  0  0
    0.6890   -2.0760   -0.9900 H   0  0  0  0  0  0  0  0  0  0  0  0
   -0.1180    1.6620    0.9500 H   0  0  0  0  0  0  0  0  0  0  0  0
    5.5150    4.0400   -2.9870 H   0  0  0  0  0  0  0  0  0  0  0  0
    3.8880    4.7410   -3.1570 H   0  0  0  0  0  0  0  0  0  0  0  0
    4.6780    1.0710   -5.1660 H   0  0  0  0  0  0  0  0  0  0  0  0
    5.9990    1.7940   -4.2160 H   0  0  0  0  0  0  0  0  0  0  0  0
   -6.1560   -3.0930   -2.6100 H   0  0  0  0  0  0  0  0  0  0  0  0
   -4.4690   -2.7300   -3.0450 H   0  0  0  0  0  0  0  0  0  0  0  0
   -3.8680   -0.2240   -3.5830 H   0  0  0  0  0  0  0  0  0  0  0  0
   -5.1830    0.9720   -3.4960 H   0  0  0  0  0  0  0  0  0  0  0  0
    3.1870    2.8950   -4.5710 H   0  0  0  0  0  0  0  0  0  0  0  0
   -6.7620   -0.7490   -2.8170 H   0  0  0  0  0  0  0  0  0  0  0  0
    5.8760    3.9630   -5.4660 H   0  0  0  0  0  0  0  0  0  0  0  0
    4.3030    4.7690   -5.6710 H   0  0  0  0  0  0  0  0  0  0  0  0
    4.6320    3.2350   -6.5100 H   0  0  0  0  0  0  0  0  0  0  0  0
   -5.1430   -1.6560   -5.2200 H   0  0  0  0  0  0  0  0  0  0  0  0
   -6.4200   -0.4160   -5.2240 H   0  0  0  0  0  0  0  0  0  0  0  0
   -6.8250   -2.1100   -4.8570 H   0  0  0  0  0  0  0  0  0  0  0  0
  1  2  1  0  0  0  0
  1  3  1  0  0  0  0
  1  6  2  0  0  0  0
  1  7  2  0  0  0  0
  2  9  1  0  0  0  0
  2 10  1  0  0  0  0
  3 13  1  0  0  0  0
  3 14  2  0  0  0  0
  4  8  1  0  0  0  0
  4 11  1  0  0  0  0
  4 12  2  0  0  0  0
  5 11  1  0  0  0  0
  5 16  1  0  0  0  0
  5 17  1  0  0  0  0
  5 28  1  6  0  0  0
  8 15  1  0  0  0  0
  8 29  1  0  0  0  0
  9 21  1  0  0  0  0
  9 30  1  0  0  0  0
  9 31  1  0  0  0  0
 10 20  1  0  0  0  0
 10 32  1  0  0  0  0
 10 33  1  0  0  0  0
 11 34  1  0  0  0  0
 11 35  1  0  0  0  0
 13 19  2  0  0  0  0
 13 36  1  0  0  0  0
 14 18  1  0  0  0  0
 14 37  1  0  0  0  0
 15 18  2  0  0  0  0
 15 19  1  0  0  0  0
 16 22  1  0  0  0  0
 16 38  1  0  0  0  0
 16 39  1  0  0  0  0
 17 23  1  0  0  0  0
 17 40  1  0  0  0  0
 17 41  1  0  0  0  0
 18 42  1  0  0  0  0
 19 43  1  0  0  0  0
 20 24  1  0  0  0  0
 20 44  1  0  0  0  0
 20 45  1  0  0  0  0
 21 24  1  0  0  0  0
 21 46  1  0  0  0  0
 21 47  1  0  0  0  0
 22 25  1  0  0  0  0
 22 48  1  0  0  0  0
 22 49  1  0  0  0  0
 23 25  1  0  0  0  0
 23 50  1  0  0  0  0
 23 51  1  0  0  0  0
 24 26  1  0  0  0  0
 24 52  1  6  0  0  0
 25 27  1  0  0  0  0
 25 53  1  1  0  0  0
 26 54  1  0  0  0  0
 26 55  1  0  0  0  0
 26 56  1  0  0  0  0
 27 57  1  0  0  0  0
 27 58  1  0  0  0  0
 27 59  1  0  0  0  0
M  CHG  1   5   1
M  END
>  <$CLUSTER>
206

>  <INDEX>
134924

$$$$
Life Chemicals F1895-0070
 OpenBabel04062209303D

 46 49  0  0  0  0  0  0  0  0999 V2000
   -2.9820    2.6370   -1.2300 C   0  0  0  0  0  0  0  0  0  0  0  0
   -2.4470    1.8760   -2.2410 N   0  0  0  0  0  0  0  0  0  0  0  0
   -4.1310    2.5280   -0.6680 N   0  0  0  0  0  0  0  0  0  0  0  0
   -3.2560    0.8510   -2.7490 C   0  0  0  0  0  0  0  0  0  0  0  0
   -0.1640   -0.4950   -0.2880 C   0  0  0  0  0  0  0  0  0  0  0  0
   -4.4780    0.6910   -2.2320 C   0  0  0  0  0  0  0  0  0  0  0  0
   -0.7880   -1.6440   -0.4390 N   0  0  0  0  0  0  0  0  0  0  0  0
   -4.9730    1.5750   -1.1740 C   0  0  0  0  0  0  0  0  0  0  0  0
    1.4870   -0.4910   -0.7360 S   0  0  0  0  0  0  0  0  0  0  0  0
   -0.7950    0.6370    0.1990 N   0  0  0  0  0  0  0  0  0  0  0  0
    1.3720   -2.1440   -1.1660 C   0  0  0  0  0  0  0  0  0  0  0  0
    0.0880   -2.5860   -0.9400 C   0  0  0  0  0  0  0  0  0  0  0  0
   -1.9620    3.8840   -0.3970 S   0  0  0  0  0  0  0  0  0  0  0  0
   -1.1550    2.1100   -2.7910 C   0  0  0  0  0  0  0  0  0  0  0  0
   -0.2290    1.8900    0.3940 C   0  0  0  0  0  0  0  0  0  0  0  0
   -2.8860    0.0040   -3.7650 N   0  0  0  0  0  0  0  0  0  0  0  0
    2.3800   -2.9940   -1.6760 C   0  0  0  0  0  0  0  0  0  0  0  0
   -6.1210    1.4320   -0.7630 O   0  0  0  0  0  0  0  0  0  0  0  0
    0.9250    2.2490    0.1800 O   0  0  0  0  0  0  0  0  0  0  0  0
   -0.2360   -3.9400   -1.2300 C   0  0  0  0  0  0  0  0  0  0  0  0
   -1.2460    2.8610    0.9420 C   0  0  0  0  0  0  0  0  0  0  0  0
   -0.8850    3.2680   -3.5390 C   0  0  0  0  0  0  0  0  0  0  0  0
   -0.1120    1.1870   -2.5980 C   0  0  0  0  0  0  0  0  0  0  0  0
    2.0430   -4.3210   -1.9550 C   0  0  0  0  0  0  0  0  0  0  0  0
    1.4110    2.5810   -3.8530 C   0  0  0  0  0  0  0  0  0  0  0  0
    0.7520   -4.7900   -1.7350 C   0  0  0  0  0  0  0  0  0  0  0  0
    1.1610    1.4210   -3.1220 C   0  0  0  0  0  0  0  0  0  0  0  0
    0.3880    3.5030   -4.0640 C   0  0  0  0  0  0  0  0  0  0  0  0
    2.6530    2.7310   -4.3140 F   0  0  0  0  0  0  0  0  0  0  0  0
    3.0910   -5.2470   -2.4970 C   0  0  0  0  0  0  0  0  0  0  0  0
   -5.1110   -0.1030   -2.6000 H   0  0  0  0  0  0  0  0  0  0  0  0
   -1.7720    0.5410    0.4380 H   0  0  0  0  0  0  0  0  0  0  0  0
   -3.5280   -0.7040   -4.0920 H   0  0  0  0  0  0  0  0  0  0  0  0
   -1.9720    0.0890   -4.1850 H   0  0  0  0  0  0  0  0  0  0  0  0
    3.3820   -2.6280   -1.8450 H   0  0  0  0  0  0  0  0  0  0  0  0
   -1.2370   -4.3080   -1.0610 H   0  0  0  0  0  0  0  0  0  0  0  0
   -2.0450    2.3030    1.4310 H   0  0  0  0  0  0  0  0  0  0  0  0
   -0.7610    3.5130    1.6690 H   0  0  0  0  0  0  0  0  0  0  0  0
   -1.6730    3.9870   -3.7110 H   0  0  0  0  0  0  0  0  0  0  0  0
   -0.2980    0.2840   -2.0360 H   0  0  0  0  0  0  0  0  0  0  0  0
    0.5110   -5.8190   -1.9560 H   0  0  0  0  0  0  0  0  0  0  0  0
    1.9520    0.7030   -2.9610 H   0  0  0  0  0  0  0  0  0  0  0  0
    0.5790    4.4000   -4.6340 H   0  0  0  0  0  0  0  0  0  0  0  0
    4.0330   -4.7080   -2.6030 H   0  0  0  0  0  0  0  0  0  0  0  0
    2.7760   -5.6220   -3.4710 H   0  0  0  0  0  0  0  0  0  0  0  0
    3.2260   -6.0840   -1.8120 H   0  0  0  0  0  0  0  0  0  0  0  0
  1  2  1  0  0  0  0
  1  3  2  0  0  0  0
  1 13  1  0  0  0  0
  2  4  1  0  0  0  0
  2 14  1  0  0  0  0
  3  8  1  0  0  0  0
  4  6  2  0  0  0  0
  4 16  1  0  0  0  0
  5  7  2  0  0  0  0
  5  9  1  0  0  0  0
  5 10  1  0  0  0  0
  6  8  1  0  0  0  0
  6 31  1  0  0  0  0
  7 12  1  0  0  0  0
  8 18  2  0  0  0  0
  9 11  1  0  0  0  0
 10 15  1  0  0  0  0
 10 32  1  0  0  0  0
 11 12  2  0  0  0  0
 11 17  1  0  0  0  0
 12 20  1  0  0  0  0
 13 21  1  0  0  0  0
 14 22  1  0  0  0  0
 14 23  2  0  0  0  0
 15 19  2  0  0  0  0
 15 21  1  0  0  0  0
 16 33  1  0  0  0  0
 16 34  1  0  0  0  0
 17 24  2  0  0  0  0
 17 35  1  0  0  0  0
 20 26  2  0  0  0  0
 20 36  1  0  0  0  0
 21 37  1  0  0  0  0
 21 38  1  0  0  0  0
 22 28  2  0  0  0  0
 22 39  1  0  0  0  0
 23 27  1  0  0  0  0
 23 40  1  0  0  0  0
 24 26  1  0  0  0  0
 24 30  1  0  0  0  0
 25 27  2  0  0  0  0
 25 28  1  0  0  0  0
 25 29  1  0  0  0  0
 26 41  1  0  0  0  0
 27 42  1  0  0  0  0
 28 43  1  0  0  0  0
 30 44  1  0  0  0  0
 30 45  1  0  0  0  0
 30 46  1  0  0  0  0
M  END
>  <$CLUSTER>
462

>  <INDEX>
302198

$$$$
Asinex BAS 05101595
 OpenBabel04062209303D

 54 57  0  0  0  0  0  0  0  0999 V2000
   -1.8820   -1.8890    1.0830 C   0  0  0  0  0  0  0  0  0  0  0  0
   -3.3590   -2.2170    1.1880 C   0  0  0  0  0  0  0  0  0  0  0  0
   -3.6680   -3.4370    1.7430 N   0  0  0  0  0  0  0  0  0  0  0  0
   -0.1690   -0.2630    0.3560 N   0  0  0  0  0  0  0  0  0  0  0  0
   -1.0140   -2.7930    1.5320 C   0  0  0  0  0  0  0  0  0  0  0  0
    0.4990   -0.6360   -0.8140 C   0  0  0  0  0  0  0  0  0  0  0  0
   -2.7360   -4.3370    2.1890 C   0  0  0  0  0  0  0  0  0  0  0  0
   -1.6070   -0.5280    0.4630 C   0  0  0  0  0  0  0  0  0  0  0  0
   -1.4320   -4.0550    2.1010 C   0  0  0  0  0  0  0  0  0  0  0  0
    1.9740   -0.3260   -0.8850 C   0  0  0  0  0  0  0  0  0  0  0  0
    0.4730    0.3810    1.5100 C   0  0  0  0  0  0  0  0  0  0  0  0
   -4.2220   -1.4340    0.7990 O   0  0  0  0  0  0  0  0  0  0  0  0
   -0.0460   -1.2030   -1.7650 O   0  0  0  0  0  0  0  0  0  0  0  0
   -3.1630   -5.5810    2.7510 C   0  0  0  0  0  0  0  0  0  0  0  0
   -0.4370   -4.9720    2.5570 C   0  0  0  0  0  0  0  0  0  0  0  0
    2.5400   -0.1760   -2.1410 C   0  0  0  0  0  0  0  0  0  0  0  0
    2.7390   -0.2020    0.2700 C   0  0  0  0  0  0  0  0  0  0  0  0
   -2.2090   -6.4910    3.2020 C   0  0  0  0  0  0  0  0  0  0  0  0
    0.3430    1.8960    1.4590 C   0  0  0  0  0  0  0  0  0  0  0  0
   -0.8500   -6.1880    3.1070 C   0  0  0  0  0  0  0  0  0  0  0  0
    3.9020    0.1130   -2.2510 C   0  0  0  0  0  0  0  0  0  0  0  0
    4.1010    0.0870    0.1540 C   0  0  0  0  0  0  0  0  0  0  0  0
    4.6810    0.2460   -1.1030 C   0  0  0  0  0  0  0  0  0  0  0  0
   -2.6440   -7.7950    3.7890 C   0  0  0  0  0  0  0  0  0  0  0  0
    6.1370    0.5600   -1.2230 C   0  0  0  0  0  0  0  0  0  0  0  0
   -0.6480    2.5480    2.2030 C   0  0  0  0  0  0  0  0  0  0  0  0
    1.2020    2.6510    0.6480 C   0  0  0  0  0  0  0  0  0  0  0  0
   -0.7610    3.9410    2.1570 C   0  0  0  0  0  0  0  0  0  0  0  0
    1.0880    4.0420    0.6040 C   0  0  0  0  0  0  0  0  0  0  0  0
    0.1080    4.6870    1.3600 C   0  0  0  0  0  0  0  0  0  0  0  0
   -4.6430   -3.6850    1.8270 H   0  0  0  0  0  0  0  0  0  0  0  0
    0.0420   -2.5760    1.4690 H   0  0  0  0  0  0  0  0  0  0  0  0
   -2.0630    0.2420    1.0850 H   0  0  0  0  0  0  0  0  0  0  0  0
   -2.0470   -0.4980   -0.5340 H   0  0  0  0  0  0  0  0  0  0  0  0
    1.5310    0.1180    1.5170 H   0  0  0  0  0  0  0  0  0  0  0  0
    0.0020    0.0170    2.4230 H   0  0  0  0  0  0  0  0  0  0  0  0
   -4.2150   -5.8130    2.8250 H   0  0  0  0  0  0  0  0  0  0  0  0
    0.6130   -4.7310    2.4780 H   0  0  0  0  0  0  0  0  0  0  0  0
    1.9330   -0.2820   -3.0280 H   0  0  0  0  0  0  0  0  0  0  0  0
    2.2870   -0.3270    1.2430 H   0  0  0  0  0  0  0  0  0  0  0  0
   -0.1150   -6.8960    3.4600 H   0  0  0  0  0  0  0  0  0  0  0  0
    4.3520    0.2330   -3.2260 H   0  0  0  0  0  0  0  0  0  0  0  0
    4.7070    0.1880    1.0420 H   0  0  0  0  0  0  0  0  0  0  0  0
   -3.7320   -7.8530    3.7800 H   0  0  0  0  0  0  0  0  0  0  0  0
   -2.2850   -7.8690    4.8150 H   0  0  0  0  0  0  0  0  0  0  0  0
   -2.2320   -8.6140    3.2000 H   0  0  0  0  0  0  0  0  0  0  0  0
    6.4040    0.6470   -2.2760 H   0  0  0  0  0  0  0  0  0  0  0  0
    6.7200   -0.2390   -0.7650 H   0  0  0  0  0  0  0  0  0  0  0  0
    6.3490    1.5010   -0.7160 H   0  0  0  0  0  0  0  0  0  0  0  0
   -1.3270    1.9730    2.8150 H   0  0  0  0  0  0  0  0  0  0  0  0
    1.9550    2.1540    0.0550 H   0  0  0  0  0  0  0  0  0  0  0  0
   -1.5220    4.4400    2.7390 H   0  0  0  0  0  0  0  0  0  0  0  0
    1.7590    4.6190   -0.0150 H   0  0  0  0  0  0  0  0  0  0  0  0
    0.0220    5.7630    1.3280 H   0  0  0  0  0  0  0  0  0  0  0  0
  1  2  1  0  0  0  0
  1  5  2  0  0  0  0
  1  8  1  0  0  0  0
  2  3  1  0  0  0  0
  2 12  2  0  0  0  0
  3  7  1  0  0  0  0
  3 31  1  0  0  0  0
  4  6  1  0  0  0  0
  4  8  1  0  0  0  0
  4 11  1  0  0  0  0
  5  9  1  0  0  0  0
  5 32  1  0  0  0  0
  6 10  1  0  0  0  0
  6 13  2  0  0  0  0
  7  9  2  0  0  0  0
  7 14  1  0  0  0  0
  8 33  1  0  0  0  0
  8 34  1  0  0  0  0
  9 15  1  0  0  0  0
 10 16  2  0  0  0  0
 10 17  1  0  0  0  0
 11 19  1  0  0  0  0
 11 35  1  0  0  0  0
 11 36  1  0  0  0  0
 14 18  2  0  0  0  0
 14 37  1  0  0  0  0
 15 20  2  0  0  0  0
 15 38  1  0  0  0  0
 16 21  1  0  0  0  0
 16 39  1  0  0  0  0
 17 22  2  0  0  0  0
 17 40  1  0  0  0  0
 18 20  1  0  0  0  0
 18 24  1  0  0  0  0
 19 26  2  0  0  0  0
 19 27  1  0  0  0  0
 20 41  1  0  0  0  0
 21 23  2  0  0  0  0
 21 42  1  0  0  0  0
 22 23  1  0  0  0  0
 22 43  1  0  0  0  0
 23 25  1  0  0  0  0
 24 44  1  0  0  0  0
 24 45  1  0  0  0  0
 24 46  1  0  0  0  0
 25 47  1  0  0  0  0
 25 48  1  0  0  0  0
 25 49  1  0  0  0  0
 26 28  1  0  0  0  0
 26 50  1  0  0  0  0
 27 29  2  0  0  0  0
 27 51  1  0  0  0  0
 28 30  2  0  0  0  0
 28 52  1  0  0  0  0
 29 30  1  0  0  0  0
 29 53  1  0  0  0  0
 30 54  1  0  0  0  0
M  END
>  <$CLUSTER>
222

>  <INDEX>
181503

$$$$
InterBioScreen STOCK4S-15128
 OpenBabel04062209303D

 53 56  0  0  0  0  0  0  0  0999 V2000
   -0.1040   -0.1850   -1.0940 C   0  0  0  0  0  0  0  0  0  0  0  0
   -1.0110    0.7150   -1.6330 C   0  0  0  0  0  0  0  0  0  0  0  0
    0.3090   -0.8200   -3.3400 N   0  0  0  0  0  0  0  0  0  0  0  0
   -0.6240    0.1240   -3.7420 C   0  0  0  0  0  0  0  0  0  0  0  0
   -1.2980    0.9000   -2.9530 N   0  0  0  0  0  0  0  0  0  0  0  0
    0.6370   -1.0480   -2.0050 C   0  0  0  0  0  0  0  0  0  0  0  0
   -0.0520   -0.1100    0.3300 C   0  0  0  0  0  0  0  0  0  0  0  0
   -1.7930    1.6290   -0.4180 S   0  0  0  0  0  0  0  0  0  0  0  0
   -0.9360    0.8320    0.8140 C   0  0  0  0  0  0  0  0  0  0  0  0
   -0.8520    0.5270   -5.4610 S   0  0  0  0  0  0  0  0  0  0  0  0
    0.9060   -1.7510   -4.3430 C   0  0  0  0  0  0  0  0  0  0  0  0
    0.7820   -0.9160    1.2740 C   0  0  0  0  0  0  0  0  0  0  0  0
   -0.5190    0.1400    3.0630 O   0  0  0  0  0  0  0  0  0  0  0  0
    1.4560   -1.8830   -1.6360 O   0  0  0  0  0  0  0  0  0  0  0  0
    0.8110   -0.2750    2.6860 C   0  0  0  0  0  0  0  0  0  0  0  0
   -1.1130    1.1700    2.2540 C   0  0  0  0  0  0  0  0  0  0  0  0
   -2.9000    2.1550   -4.5980 C   0  0  0  0  0  0  0  0  0  0  0  0
   -2.5850    3.2970   -4.9280 O   0  0  0  0  0  0  0  0  0  0  0  0
   -2.6150    0.9240   -5.4480 C   0  0  0  0  0  0  0  0  0  0  0  0
    0.1240   -2.4990   -5.2380 C   0  0  0  0  0  0  0  0  0  0  0  0
    2.2980   -1.9310   -4.3510 C   0  0  0  0  0  0  0  0  0  0  0  0
   -3.5170    1.8940   -3.4160 N   0  0  0  0  0  0  0  0  0  0  0  0
    2.1100   -3.5320   -6.1510 C   0  0  0  0  0  0  0  0  0  0  0  0
    0.7250   -3.3800   -6.1400 C   0  0  0  0  0  0  0  0  0  0  0  0
    2.8950   -2.8110   -5.2560 C   0  0  0  0  0  0  0  0  0  0  0  0
    2.8140   -4.3710   -6.9830 O   0  0  0  0  0  0  0  0  0  0  0  0
    1.8080    0.8920    2.7720 C   0  0  0  0  0  0  0  0  0  0  0  0
    1.2230   -1.3400    3.7130 C   0  0  0  0  0  0  0  0  0  0  0  0
    2.0610   -5.1410   -7.9210 C   0  0  0  0  0  0  0  0  0  0  0  0
    3.0370   -5.9790   -8.7260 C   0  0  0  0  0  0  0  0  0  0  0  0
    1.8000   -0.9730    0.8890 H   0  0  0  0  0  0  0  0  0  0  0  0
    0.3650   -1.9200    1.3480 H   0  0  0  0  0  0  0  0  0  0  0  0
   -2.1760    1.2440    2.4820 H   0  0  0  0  0  0  0  0  0  0  0  0
   -0.6290    2.1230    2.4660 H   0  0  0  0  0  0  0  0  0  0  0  0
   -3.1670    0.0760   -5.0410 H   0  0  0  0  0  0  0  0  0  0  0  0
   -2.9430    1.1150   -6.4700 H   0  0  0  0  0  0  0  0  0  0  0  0
   -0.9510   -2.3920   -5.2290 H   0  0  0  0  0  0  0  0  0  0  0  0
    2.9130   -1.3840   -3.6510 H   0  0  0  0  0  0  0  0  0  0  0  0
   -3.7300    2.6490   -2.7800 H   0  0  0  0  0  0  0  0  0  0  0  0
   -3.7630    0.9450   -3.1740 H   0  0  0  0  0  0  0  0  0  0  0  0
    0.1150   -3.9440   -6.8300 H   0  0  0  0  0  0  0  0  0  0  0  0
    3.9680   -2.9320   -5.2610 H   0  0  0  0  0  0  0  0  0  0  0  0
    1.5320    1.6600    2.0490 H   0  0  0  0  0  0  0  0  0  0  0  0
    2.8120    0.5290    2.5510 H   0  0  0  0  0  0  0  0  0  0  0  0
    1.7870    1.3140    3.7770 H   0  0  0  0  0  0  0  0  0  0  0  0
    0.5270   -2.1770    3.6670 H   0  0  0  0  0  0  0  0  0  0  0  0
    1.2050   -0.9070    4.7130 H   0  0  0  0  0  0  0  0  0  0  0  0
    2.2300   -1.6920    3.4880 H   0  0  0  0  0  0  0  0  0  0  0  0
    1.5070   -4.4770   -8.5850 H   0  0  0  0  0  0  0  0  0  0  0  0
    1.3640   -5.7910   -7.3920 H   0  0  0  0  0  0  0  0  0  0  0  0
    3.7310   -5.3230   -9.2520 H   0  0  0  0  0  0  0  0  0  0  0  0
    2.4880   -6.5820   -9.4490 H   0  0  0  0  0  0  0  0  0  0  0  0
    3.5930   -6.6340   -8.0550 H   0  0  0  0  0  0  0  0  0  0  0  0
  1  2  2  0  0  0  0
  1  6  1  0  0  0  0
  1  7  1  0  0  0  0
  2  5  1  0  0  0  0
  2  8  1  0  0  0  0
  3  4  1  0  0  0  0
  3  6  1  0  0  0  0
  3 11  1  0  0  0  0
  4  5  2  0  0  0  0
  4 10  1  0  0  0  0
  6 14  2  0  0  0  0
  7  9  2  0  0  0  0
  7 12  1  0  0  0  0
  8  9  1  0  0  0  0
  9 16  1  0  0  0  0
 10 19  1  0  0  0  0
 11 20  2  0  0  0  0
 11 21  1  0  0  0  0
 12 15  1  0  0  0  0
 12 31  1  0  0  0  0
 12 32  1  0  0  0  0
 13 15  1  0  0  0  0
 13 16  1  0  0  0  0
 15 27  1  0  0  0  0
 15 28  1  0  0  0  0
 16 33  1  0  0  0  0
 16 34  1  0  0  0  0
 17 18  2  0  0  0  0
 17 19  1  0  0  0  0
 17 22  1  0  0  0  0
 19 35  1  0  0  0  0
 19 36  1  0  0  0  0
 20 24  1  0  0  0  0
 20 37  1  0  0  0  0
 21 25  2  0  0  0  0
 21 38  1  0  0  0  0
 22 39  1  0  0  0  0
 22 40  1  0  0  0  0
 23 24  2  0  0  0  0
 23 25  1  0  0  0  0
 23 26  1  0  0  0  0
 24 41  1  0  0  0  0
 25 42  1  0  0  0  0
 26 29  1  0  0  0  0
 27 43  1  0  0  0  0
 27 44  1  0  0  0  0
 27 45  1  0  0  0  0
 28 46  1  0  0  0  0
 28 47  1  0  0  0  0
 28 48  1  0  0  0  0
 29 30  1  0  0  0  0
 29 49  1  0  0  0  0
 29 50  1  0  0  0  0
 30 51  1  0  0  0  0
 30 52  1  0  0  0  0
 30 53  1  0  0  0  0
M  END
>  <$CLUSTER>
515

>  <INDEX>
350677

$$$$
Asinex ASN 05588575
 OpenBabel04062209303D

 48 51  0  0  0  0  0  0  0  0999 V2000
    1.0060    0.3720   -0.2680 N   0  0  0  0  0  0  0  0  0  0  0  0
    2.5930   -0.4890   -4.6220 C   0  0  0  0  0  0  0  0  0  0  0  0
    2.6150   -0.1010   -3.2690 C   0  0  0  0  0  0  0  0  0  0  0  0
    1.9100   -0.7580   -2.3170 N   0  0  0  0  0  0  0  0  0  0  0  0
   -0.3740   -1.7900    1.0050 N   0  0  0  0  0  0  0  0  0  0  0  0
   -0.4290    0.3330   -0.2160 C   0  0  0  0  0  0  0  0  0  0  0  0
    1.7330    1.5030   -0.6750 C   0  0  0  0  0  0  0  0  0  0  0  0
    0.9800   -1.9070    0.9570 C   0  0  0  0  0  0  0  0  0  0  0  0
   -1.0830   -0.7420    0.4170 C   0  0  0  0  0  0  0  0  0  0  0  0
    3.3350    0.2000   -5.6350 C   0  0  0  0  0  0  0  0  0  0  0  0
    1.7150   -0.8600    0.1320 C   0  0  0  0  0  0  0  0  0  0  0  0
    1.0870   -2.2740   -4.0080 C   0  0  0  0  0  0  0  0  0  0  0  0
    1.1660   -1.8230   -2.7000 C   0  0  0  0  0  0  0  0  0  0  0  0
    1.8130   -1.5950   -4.9830 C   0  0  0  0  0  0  0  0  0  0  0  0
    3.9270    0.7420   -6.4780 N   0  0  0  0  0  0  0  0  0  0  0  0
    3.5990    1.3220   -2.7140 S   0  0  0  0  0  0  0  0  0  0  0  0
    3.2140    1.2970   -0.9350 C   0  0  0  0  0  0  0  0  0  0  0  0
    0.2970   -3.3860   -4.3510 C   0  0  0  0  0  0  0  0  0  0  0  0
    1.5670   -2.8540    1.4800 O   0  0  0  0  0  0  0  0  0  0  0  0
    1.2740    2.6360   -0.8140 O   0  0  0  0  0  0  0  0  0  0  0  0
    0.4270   -2.5160   -1.7130 C   0  0  0  0  0  0  0  0  0  0  0  0
   -0.4250   -4.0570   -3.3650 C   0  0  0  0  0  0  0  0  0  0  0  0
   -0.3600   -3.6210   -2.0450 C   0  0  0  0  0  0  0  0  0  0  0  0
   -1.2360    1.3270   -0.7940 C   0  0  0  0  0  0  0  0  0  0  0  0
   -1.1560   -5.1230   -3.8200 O   0  0  0  0  0  0  0  0  0  0  0  0
   -2.4810   -0.7960    0.4980 C   0  0  0  0  0  0  0  0  0  0  0  0
   -1.9160   -5.8470   -2.8530 C   0  0  0  0  0  0  0  0  0  0  0  0
   -2.6310    1.2690   -0.7200 C   0  0  0  0  0  0  0  0  0  0  0  0
   -3.2540    0.2110   -0.0690 C   0  0  0  0  0  0  0  0  0  0  0  0
   -2.6390   -6.9720   -3.5740 C   0  0  0  0  0  0  0  0  0  0  0  0
   -0.8960   -2.5030    1.4940 H   0  0  0  0  0  0  0  0  0  0  0  0
    2.5860   -0.5520    0.7110 H   0  0  0  0  0  0  0  0  0  0  0  0
    2.0430   -1.3500   -0.7850 H   0  0  0  0  0  0  0  0  0  0  0  0
    1.7750   -1.9190   -6.0120 H   0  0  0  0  0  0  0  0  0  0  0  0
    3.5140    0.3330   -0.5230 H   0  0  0  0  0  0  0  0  0  0  0  0
    3.7730    2.0930   -0.4420 H   0  0  0  0  0  0  0  0  0  0  0  0
    0.2500   -3.7200   -5.3770 H   0  0  0  0  0  0  0  0  0  0  0  0
    0.4720   -2.1850   -0.6860 H   0  0  0  0  0  0  0  0  0  0  0  0
   -0.9180   -4.1370   -1.2780 H   0  0  0  0  0  0  0  0  0  0  0  0
   -0.7680    2.1540   -1.3070 H   0  0  0  0  0  0  0  0  0  0  0  0
   -2.9590   -1.6220    1.0020 H   0  0  0  0  0  0  0  0  0  0  0  0
   -2.6410   -5.1840   -2.3800 H   0  0  0  0  0  0  0  0  0  0  0  0
   -1.2520   -6.2600   -2.0940 H   0  0  0  0  0  0  0  0  0  0  0  0
   -3.2270    2.0490   -1.1700 H   0  0  0  0  0  0  0  0  0  0  0  0
   -4.3310    0.1710   -0.0040 H   0  0  0  0  0  0  0  0  0  0  0  0
   -3.3010   -6.5520   -4.3310 H   0  0  0  0  0  0  0  0  0  0  0  0
   -3.2260   -7.5460   -2.8560 H   0  0  0  0  0  0  0  0  0  0  0  0
   -1.9090   -7.6260   -4.0520 H   0  0  0  0  0  0  0  0  0  0  0  0
  1  6  1  0  0  0  0
  1  7  1  0  0  0  0
  1 11  1  0  0  0  0
  2  3  1  0  0  0  0
  2 10  1  0  0  0  0
  2 14  2  0  0  0  0
  3  4  2  0  0  0  0
  3 16  1  0  0  0  0
  4 13  1  0  0  0  0
  5  8  1  0  0  0  0
  5  9  1  0  0  0  0
  5 31  1  0  0  0  0
  6  9  2  0  0  0  0
  6 24  1  0  0  0  0
  7 17  1  0  0  0  0
  7 20  2  0  0  0  0
  8 11  1  0  0  0  0
  8 19  2  0  0  0  0
  9 26  1  0  0  0  0
 10 15  3  0  0  0  0
 11 32  1  0  0  0  0
 11 33  1  0  0  0  0
 12 13  2  0  0  0  0
 12 14  1  0  0  0  0
 12 18  1  0  0  0  0
 13 21  1  0  0  0  0
 14 34  1  0  0  0  0
 16 17  1  0  0  0  0
 17 35  1  0  0  0  0
 17 36  1  0  0  0  0
 18 22  2  0  0  0  0
 18 37  1  0  0  0  0
 21 23  2  0  0  0  0
 21 38  1  0  0  0  0
 22 23  1  0  0  0  0
 22 25  1  0  0  0  0
 23 39  1  0  0  0  0
 24 28  2  0  0  0  0
 24 40  1  0  0  0  0
 25 27  1  0  0  0  0
 26 29  2  0  0  0  0
 26 41  1  0  0  0  0
 27 30  1  0  0  0  0
 27 42  1  0  0  0  0
 27 43  1  0  0  0  0
 28 29  1  0  0  0  0
 28 44  1  0  0  0  0
 29 45  1  0  0  0  0
 30 46  1  0  0  0  0
 30 47  1  0  0  0  0
 30 48  1  0  0  0  0
M  END
>  <$CLUSTER>
232

>  <INDEX>
149658

$$$$
Biofocus 170_4347_0164
 OpenBabel04062209303D

 37 39  0  0  0  0  0  0  0  0999 V2000
   -0.8580    0.8040   -0.4500 N   0  0  0  0  0  0  0  0  0  0  0  0
   -0.1410    1.0000   -1.6590 C   0  0  0  0  0  0  0  0  0  0  0  0
   -0.2660   -0.2510    0.2640 C   0  0  0  0  0  0  0  0  0  0  0  0
    0.8960    0.0300   -1.6510 N   0  0  0  0  0  0  0  0  0  0  0  0
    0.8050   -0.7200   -0.4760 C   0  0  0  0  0  0  0  0  0  0  0  0
   -0.6170   -0.7630    1.4500 N   0  0  0  0  0  0  0  0  0  0  0  0
    1.5920   -1.7270   -0.0830 N   0  0  0  0  0  0  0  0  0  0  0  0
    0.1700   -1.7830    1.8620 C   0  0  0  0  0  0  0  0  0  0  0  0
   -0.2040   -2.3840    3.2050 C   0  0  0  0  0  0  0  0  0  0  0  0
    0.3810   -3.5020    5.3010 C   0  0  0  0  0  0  0  0  0  0  0  0
    0.7540   -2.9500    4.0720 C   0  0  0  0  0  0  0  0  0  0  0  0
   -0.3560    1.8270   -2.5330 O   0  0  0  0  0  0  0  0  0  0  0  0
    1.2460   -2.2530    1.1150 C   0  0  0  0  0  0  0  0  0  0  0  0
   -0.9530   -3.4970    5.6950 C   0  0  0  0  0  0  0  0  0  0  0  0
   -1.5470   -2.3850    3.6340 C   0  0  0  0  0  0  0  0  0  0  0  0
   -2.0040    1.5540    0.0110 C   0  0  0  0  0  0  0  0  0  0  0  0
   -1.9190   -2.9360    4.8620 C   0  0  0  0  0  0  0  0  0  0  0  0
    1.5570   -4.1850    6.3280 Cl  0  0  0  0  0  0  0  0  0  0  0  0
   -1.2230   -4.0460    6.8800 F   0  0  0  0  0  0  0  0  0  0  0  0
   -1.6060    2.6640    0.9690 C   0  0  0  0  0  0  0  0  0  0  0  0
   -2.3580    4.4630    2.3540 O   0  0  0  0  0  0  0  0  0  0  0  0
   -2.8040    3.4490    1.4670 C   0  0  0  0  0  0  0  0  0  0  0  0
   -3.4330    5.2390    2.8590 C   0  0  0  0  0  0  0  0  0  0  0  0
    1.5870   -0.0970   -2.3770 H   0  0  0  0  0  0  0  0  0  0  0  0
    1.7940   -2.9570    3.7810 H   0  0  0  0  0  0  0  0  0  0  0  0
    1.8300   -3.0720    1.5080 H   0  0  0  0  0  0  0  0  0  0  0  0
   -2.3050   -1.9500    2.9990 H   0  0  0  0  0  0  0  0  0  0  0  0
   -2.6870    0.8750    0.5220 H   0  0  0  0  0  0  0  0  0  0  0  0
   -2.5060    1.9950   -0.8500 H   0  0  0  0  0  0  0  0  0  0  0  0
   -2.9550   -2.9270    5.1660 H   0  0  0  0  0  0  0  0  0  0  0  0
   -0.9290    3.3460    0.4540 H   0  0  0  0  0  0  0  0  0  0  0  0
   -1.0950    2.2230    1.8250 H   0  0  0  0  0  0  0  0  0  0  0  0
   -3.4870    2.7800    1.9910 H   0  0  0  0  0  0  0  0  0  0  0  0
   -3.3190    3.9040    0.6210 H   0  0  0  0  0  0  0  0  0  0  0  0
   -3.0450    6.0020    3.5330 H   0  0  0  0  0  0  0  0  0  0  0  0
   -4.1240    4.5930    3.4010 H   0  0  0  0  0  0  0  0  0  0  0  0
   -3.9560    5.7180    2.0310 H   0  0  0  0  0  0  0  0  0  0  0  0
  1  2  1  0  0  0  0
  1  3  1  0  0  0  0
  1 16  1  0  0  0  0
  2  4  1  0  0  0  0
  2 12  2  0  0  0  0
  3  5  2  0  0  0  0
  3  6  1  0  0  0  0
  4  5  1  0  0  0  0
  4 24  1  0  0  0  0
  5  7  1  0  0  0  0
  6  8  2  0  0  0  0
  7 13  2  0  0  0  0
  8  9  1  0  0  0  0
  8 13  1  0  0  0  0
  9 11  2  0  0  0  0
  9 15  1  0  0  0  0
 10 11  1  0  0  0  0
 10 14  2  0  0  0  0
 10 18  1  0  0  0  0
 11 25  1  0  0  0  0
 13 26  1  0  0  0  0
 14 17  1  0  0  0  0
 14 19  1  0  0  0  0
 15 17  2  0  0  0  0
 15 27  1  0  0  0  0
 16 20  1  0  0  0  0
 16 28  1  0  0  0  0
 16 29  1  0  0  0  0
 17 30  1  0  0  0  0
 20 22  1  0  0  0  0
 20 31  1  0  0  0  0
 20 32  1  0  0  0  0
 21 22  1  0  0  0  0
 21 23  1  0  0  0  0
 22 33  1  0  0  0  0
 22 34  1  0  0  0  0
 23 35  1  0  0  0  0
 23 36  1  0  0  0  0
 23 37  1  0  0  0  0
M  END
>  <$CLUSTER>
28

>  <INDEX>
15736

$$$$
InterBioScreen STOCK5S-06824
 OpenBabel04062209303D

 40 42  0  0  0  0  0  0  0  0999 V2000
   -1.4060    1.5510    0.3550 N   0  0  0  0  0  0  0  0  0  0  0  0
   -0.9890    0.3810   -0.2400 C   0  0  0  0  0  0  0  0  0  0  0  0
   -1.9230   -0.2030   -1.0100 N   0  0  0  0  0  0  0  0  0  0  0  0
   -2.6340    1.6610   -0.0820 C   0  0  0  0  0  0  0  0  0  0  0  0
   -3.0190    0.6540   -0.9020 O   0  0  0  0  0  0  0  0  0  0  0  0
    0.3530   -0.1430   -0.0280 C   0  0  0  0  0  0  0  0  0  0  0  0
   -4.6130    4.9220   -0.5800 C   0  0  0  0  0  0  0  0  0  0  0  0
   -4.5710    5.9120   -1.5320 N   0  0  0  0  0  0  0  0  0  0  0  0
   -5.3330    7.0920   -1.6530 C   0  0  0  0  0  0  0  0  0  0  0  0
   -5.3750    4.9180    0.3750 O   0  0  0  0  0  0  0  0  0  0  0  0
    1.2610    0.5390    0.7970 C   0  0  0  0  0  0  0  0  0  0  0  0
    0.7650   -1.3360   -0.6400 C   0  0  0  0  0  0  0  0  0  0  0  0
   -3.6310    2.7220    0.1980 C   0  0  0  0  0  0  0  0  0  0  0  0
   -3.5880    3.8170   -0.8550 C   0  0  0  0  0  0  0  0  0  0  0  0
   -6.3280    7.4510   -0.7390 C   0  0  0  0  0  0  0  0  0  0  0  0
    2.9460   -1.1470    0.3890 C   0  0  0  0  0  0  0  0  0  0  0  0
    2.5490    0.0390    1.0020 C   0  0  0  0  0  0  0  0  0  0  0  0
    2.0550   -1.8340   -0.4320 C   0  0  0  0  0  0  0  0  0  0  0  0
    4.5180   -1.7430    0.6510 Cl  0  0  0  0  0  0  0  0  0  0  0  0
   -7.0510    8.6370   -0.9120 C   0  0  0  0  0  0  0  0  0  0  0  0
   -5.8010    9.1210   -2.9130 C   0  0  0  0  0  0  0  0  0  0  0  0
   -5.0770    7.9390   -2.7420 C   0  0  0  0  0  0  0  0  0  0  0  0
   -6.7890    9.4690   -1.9970 C   0  0  0  0  0  0  0  0  0  0  0  0
   -8.1130    9.0110    0.0740 C   0  0  0  0  0  0  0  0  0  0  0  0
   -3.8860    5.7720   -2.2610 H   0  0  0  0  0  0  0  0  0  0  0  0
    0.9610    1.4590    1.2780 H   0  0  0  0  0  0  0  0  0  0  0  0
    0.0800   -1.8750   -1.2780 H   0  0  0  0  0  0  0  0  0  0  0  0
   -3.4180    3.1600    1.1730 H   0  0  0  0  0  0  0  0  0  0  0  0
   -4.6270    2.2790    0.2080 H   0  0  0  0  0  0  0  0  0  0  0  0
   -2.5910    4.2570   -0.8640 H   0  0  0  0  0  0  0  0  0  0  0  0
   -3.7990    3.3760   -1.8290 H   0  0  0  0  0  0  0  0  0  0  0  0
   -6.5400    6.8100    0.1040 H   0  0  0  0  0  0  0  0  0  0  0  0
    3.2390    0.5740    1.6380 H   0  0  0  0  0  0  0  0  0  0  0  0
    2.3610   -2.7530   -0.9090 H   0  0  0  0  0  0  0  0  0  0  0  0
   -5.5940    9.7640   -3.7550 H   0  0  0  0  0  0  0  0  0  0  0  0
   -4.3110    7.6740   -3.4560 H   0  0  0  0  0  0  0  0  0  0  0  0
   -7.3510   10.3820   -2.1270 H   0  0  0  0  0  0  0  0  0  0  0  0
   -8.1750    8.2460    0.8480 H   0  0  0  0  0  0  0  0  0  0  0  0
   -9.0720    9.0890   -0.4370 H   0  0  0  0  0  0  0  0  0  0  0  0
   -7.8650    9.9700    0.5290 H   0  0  0  0  0  0  0  0  0  0  0  0
  1  2  1  0  0  0  0
  1  4  2  0  0  0  0
  2  3  2  0  0  0  0
  2  6  1  0  0  0  0
  3  5  1  0  0  0  0
  4  5  1  0  0  0  0
  4 13  1  0  0  0  0
  6 11  2  0  0  0  0
  6 12  1  0  0  0  0
  7  8  1  0  0  0  0
  7 10  2  0  0  0  0
  7 14  1  0  0  0  0
  8  9  1  0  0  0  0
  8 25  1  0  0  0  0
  9 15  2  0  0  0  0
  9 22  1  0  0  0  0
 11 17  1  0  0  0  0
 11 26  1  0  0  0  0
 12 18  2  0  0  0  0
 12 27  1  0  0  0  0
 13 14  1  0  0  0  0
 13 28  1  0  0  0  0
 13 29  1  0  0  0  0
 14 30  1  0  0  0  0
 14 31  1  0  0  0  0
 15 20  1  0  0  0  0
 15 32  1  0  0  0  0
 16 17  2  0  0  0  0
 16 18  1  0  0  0  0
 16 19  1  0  0  0  0
 17 33  1  0  0  0  0
 18 34  1  0  0  0  0
 20 23  2  0  0  0  0
 20 24  1  0  0  0  0
 21 22  2  0  0  0  0
 21 23  1  0  0  0  0
 21 35  1  0  0  0  0
 22 36  1  0  0  0  0
 23 37  1  0  0  0  0
 24 38  1  0  0  0  0
 24 39  1  0  0  0  0
 24 40  1  0  0  0  0
M  END
>  <$CLUSTER>
559

>  <INDEX>
365293

$$$$
Biofocus 119_0552_0135
 OpenBabel04062209303D

 53 56  0  0  0  0  0  0  0  0999 V2000
   -0.4780    0.1000    1.2190 N   0  0  0  0  0  0  0  0  0  0  0  0
   -0.0020   -0.0280   -0.0680 C   0  0  0  0  0  0  0  0  0  0  0  0
   -1.5870   -0.3970    1.8870 C   0  0  0  0  0  0  0  0  0  0  0  0
    0.4040    0.9060    1.8920 C   0  0  0  0  0  0  0  0  0  0  0  0
   -1.7660   -0.0700    3.1880 C   0  0  0  0  0  0  0  0  0  0  0  0
    1.4040    1.3050    1.1480 N   0  0  0  0  0  0  0  0  0  0  0  0
   -0.8860    0.7480    3.8990 N   0  0  0  0  0  0  0  0  0  0  0  0
   -0.6530   -0.7800   -1.0250 N   0  0  0  0  0  0  0  0  0  0  0  0
    1.1580    0.7270   -0.0770 C   0  0  0  0  0  0  0  0  0  0  0  0
   -0.1790   -0.9130   -2.3220 C   0  0  0  0  0  0  0  0  0  0  0  0
    0.1570    1.2150    3.2700 C   0  0  0  0  0  0  0  0  0  0  0  0
   -2.9530   -0.5840    3.9500 C   0  0  0  0  0  0  0  0  0  0  0  0
   -4.2380   -0.3050    3.4930 C   0  0  0  0  0  0  0  0  0  0  0  0
   -5.3390   -0.7960    4.1980 C   0  0  0  0  0  0  0  0  0  0  0  0
   -6.6690   -0.5070    3.7410 N   0  0  0  0  0  0  0  0  0  0  0  0
    0.8340   -0.4140   -2.8030 O   0  0  0  0  0  0  0  0  0  0  0  0
   -1.0840   -1.7890   -3.1500 C   0  0  0  0  0  0  0  0  0  0  0  0
   -0.6190   -1.9730   -4.5860 C   0  0  0  0  0  0  0  0  0  0  0  0
    0.2670   -3.0030   -4.9080 C   0  0  0  0  0  0  0  0  0  0  0  0
    0.7290   -3.1440   -6.2170 C   0  0  0  0  0  0  0  0  0  0  0  0
    1.5900   -4.1290   -6.6570 O   0  0  0  0  0  0  0  0  0  0  0  0
   -2.7540   -1.3510    5.0880 C   0  0  0  0  0  0  0  0  0  0  0  0
   -5.1490   -1.5640    5.3460 C   0  0  0  0  0  0  0  0  0  0  0  0
   -3.8580   -1.8410    5.7910 C   0  0  0  0  0  0  0  0  0  0  0  0
   -0.5450   -1.2050   -6.8780 C   0  0  0  0  0  0  0  0  0  0  0  0
   -7.8890   -0.9700    4.4040 C   0  0  0  0  0  0  0  0  0  0  0  0
   -6.8680    0.3000    2.5360 C   0  0  0  0  0  0  0  0  0  0  0  0
   -1.0080   -1.0620   -5.5690 C   0  0  0  0  0  0  0  0  0  0  0  0
    0.3220   -2.2460   -7.2010 C   0  0  0  0  0  0  0  0  0  0  0  0
    2.0350   -5.0760   -5.6930 C   0  0  0  0  0  0  0  0  0  0  0  0
   -2.2950   -1.0340    1.3780 H   0  0  0  0  0  0  0  0  0  0  0  0
   -1.5090   -1.2520   -0.7710 H   0  0  0  0  0  0  0  0  0  0  0  0
    1.7940    0.8480   -0.9410 H   0  0  0  0  0  0  0  0  0  0  0  0
    0.8510    1.8500    3.8000 H   0  0  0  0  0  0  0  0  0  0  0  0
   -4.3820    0.2860    2.6010 H   0  0  0  0  0  0  0  0  0  0  0  0
   -2.0770   -1.3390   -3.1660 H   0  0  0  0  0  0  0  0  0  0  0  0
   -1.1370   -2.7700   -2.6780 H   0  0  0  0  0  0  0  0  0  0  0  0
    0.5950   -3.6910   -4.1430 H   0  0  0  0  0  0  0  0  0  0  0  0
   -1.7520   -1.5680    5.4290 H   0  0  0  0  0  0  0  0  0  0  0  0
   -6.0010   -1.9440    5.8900 H   0  0  0  0  0  0  0  0  0  0  0  0
   -3.7100   -2.4350    6.6810 H   0  0  0  0  0  0  0  0  0  0  0  0
   -0.8590   -0.5080   -7.6410 H   0  0  0  0  0  0  0  0  0  0  0  0
   -7.6240   -1.5570    5.2830 H   0  0  0  0  0  0  0  0  0  0  0  0
   -8.4650   -1.5870    3.7150 H   0  0  0  0  0  0  0  0  0  0  0  0
   -8.4860   -0.1100    4.7080 H   0  0  0  0  0  0  0  0  0  0  0  0
   -5.8990    0.5880    2.1280 H   0  0  0  0  0  0  0  0  0  0  0  0
   -7.4370    1.1950    2.7880 H   0  0  0  0  0  0  0  0  0  0  0  0
   -7.4160   -0.2820    1.7950 H   0  0  0  0  0  0  0  0  0  0  0  0
   -1.6680   -0.2450   -5.3170 H   0  0  0  0  0  0  0  0  0  0  0  0
    0.6790   -2.3570   -8.2140 H   0  0  0  0  0  0  0  0  0  0  0  0
    2.7040   -5.7920   -6.1690 H   0  0  0  0  0  0  0  0  0  0  0  0
    1.1760   -5.6020   -5.2770 H   0  0  0  0  0  0  0  0  0  0  0  0
    2.5660   -4.5590   -4.8940 H   0  0  0  0  0  0  0  0  0  0  0  0
  1  2  1  0  0  0  0
  1  3  1  0  0  0  0
  1  4  1  0  0  0  0
  2  8  1  0  0  0  0
  2  9  2  0  0  0  0
  3  5  2  0  0  0  0
  3 31  1  0  0  0  0
  4  6  2  0  0  0  0
  4 11  1  0  0  0  0
  5  7  1  0  0  0  0
  5 12  1  0  0  0  0
  6  9  1  0  0  0  0
  7 11  2  0  0  0  0
  8 10  1  0  0  0  0
  8 32  1  0  0  0  0
  9 33  1  0  0  0  0
 10 16  2  0  0  0  0
 10 17  1  0  0  0  0
 11 34  1  0  0  0  0
 12 13  2  0  0  0  0
 12 22  1  0  0  0  0
 13 14  1  0  0  0  0
 13 35  1  0  0  0  0
 14 15  1  0  0  0  0
 14 23  2  0  0  0  0
 15 26  1  0  0  0  0
 15 27  1  0  0  0  0
 17 18  1  0  0  0  0
 17 36  1  0  0  0  0
 17 37  1  0  0  0  0
 18 19  2  0  0  0  0
 18 28  1  0  0  0  0
 19 20  1  0  0  0  0
 19 38  1  0  0  0  0
 20 21  1  0  0  0  0
 20 29  2  0  0  0  0
 21 30  1  0  0  0  0
 22 24  2  0  0  0  0
 22 39  1  0  0  0  0
 23 24  1  0  0  0  0
 23 40  1  0  0  0  0
 24 41  1  0  0  0  0
 25 28  2  0  0  0  0
 25 29  1  0  0  0  0
 25 42  1  0  0  0  0
 26 43  1  0  0  0  0
 26 44  1  0  0  0  0
 26 45  1  0  0  0  0
 27 46  1  0  0  0  0
 27 47  1  0  0  0  0
 27 48  1  0  0  0  0
 28 49  1  0  0  0  0
 29 50  1  0  0  0  0
 30 51  1  0  0  0  0
 30 52  1  0  0  0  0
 30 53  1  0  0  0  0
M  END
>  <$CLUSTER>
22

>  <INDEX>
10269

$$$$
Cerep CER0099275
 OpenBabel04062209303D

 48 51  0  0  0  0  0  0  0  0999 V2000
   -0.0880    0.1720    0.1570 C   0  0  0  0  0  0  0  0  0  0  0  0
    1.0850    0.8290    0.8240 C   0  0  0  0  0  0  0  0  0  0  0  0
   -3.3900   -1.7470   -1.7970 C   0  0  0  0  0  0  0  0  0  0  0  0
   -3.2120   -3.0320   -2.2610 N   0  0  0  0  0  0  0  0  0  0  0  0
    0.1350   -0.8370   -0.7790 C   0  0  0  0  0  0  0  0  0  0  0  0
   -2.2300   -1.1070   -1.1350 C   0  0  0  0  0  0  0  0  0  0  0  0
   -0.9180   -1.4770   -1.4250 C   0  0  0  0  0  0  0  0  0  0  0  0
   -3.3050   -5.9600   -2.2170 N   0  3  0  0  0  0  0  0  0  0  0  0
   -1.4150    0.5370    0.4420 C   0  0  0  0  0  0  0  0  0  0  0  0
   -1.3100   -9.8950   -3.3300 C   0  0  0  0  0  0  0  0  0  0  0  0
   -0.2350   -9.9660   -2.4470 C   0  0  0  0  0  0  0  0  0  0  0  0
   -1.1600  -10.7070   -4.3860 O   0  0  0  0  0  0  0  0  0  0  0  0
    0.7080  -10.8230   -2.8590 O   0  0  0  0  0  0  0  0  0  0  0  0
   -2.4780   -0.1010   -0.2020 C   0  0  0  0  0  0  0  0  0  0  0  0
    0.1260  -11.3020   -4.0930 C   0  0  0  0  0  0  0  0  0  0  0  0
   -4.4530   -1.1410   -1.8980 O   0  0  0  0  0  0  0  0  0  0  0  0
   -2.3820   -9.0430   -3.0600 C   0  0  0  0  0  0  0  0  0  0  0  0
   -4.3090   -3.7450   -2.9280 C   0  0  0  0  0  0  0  0  0  0  0  0
   -1.9640   -3.8090   -2.1630 C   0  0  0  0  0  0  0  0  0  0  0  0
   -2.3870   -8.2690   -1.8960 C   0  0  0  0  0  0  0  0  0  0  0  0
   -3.5370   -7.3130   -1.6190 C   0  0  0  0  0  0  0  0  0  0  0  0
    1.8590   -0.0490    1.5290 F   0  0  0  0  0  0  0  0  0  0  0  0
    1.9280    1.4410   -0.0590 F   0  0  0  0  0  0  0  0  0  0  0  0
    0.7330    1.8000    1.7190 F   0  0  0  0  0  0  0  0  0  0  0  0
   -0.2270   -9.1820   -1.2960 C   0  0  0  0  0  0  0  0  0  0  0  0
   -4.5770   -5.1340   -2.2830 C   0  0  0  0  0  0  0  0  0  0  0  0
   -2.1990   -5.1990   -1.5070 C   0  0  0  0  0  0  0  0  0  0  0  0
    1.3900   -1.2080   -1.0720 F   0  0  0  0  0  0  0  0  0  0  0  0
   -1.2970   -8.3280   -1.0230 C   0  0  0  0  0  0  0  0  0  0  0  0
   -0.7200   -2.2560   -2.1470 H   0  0  0  0  0  0  0  0  0  0  0  0
   -3.0000   -6.1230   -3.1660 H   0  0  0  0  0  0  0  0  0  0  0  0
   -1.6140    1.3160    1.1630 H   0  0  0  0  0  0  0  0  0  0  0  0
   -3.4950    0.1860    0.0230 H   0  0  0  0  0  0  0  0  0  0  0  0
    0.8090  -11.0710   -4.9110 H   0  0  0  0  0  0  0  0  0  0  0  0
   -0.0010  -12.3820   -4.0200 H   0  0  0  0  0  0  0  0  0  0  0  0
   -3.2090   -8.9820   -3.7520 H   0  0  0  0  0  0  0  0  0  0  0  0
   -4.0500   -3.8880   -3.9770 H   0  0  0  0  0  0  0  0  0  0  0  0
   -5.2150   -3.1430   -2.8570 H   0  0  0  0  0  0  0  0  0  0  0  0
   -1.2470   -3.2510   -1.5600 H   0  0  0  0  0  0  0  0  0  0  0  0
   -1.5600   -3.9550   -3.1650 H   0  0  0  0  0  0  0  0  0  0  0  0
   -4.4510   -7.7310   -2.0410 H   0  0  0  0  0  0  0  0  0  0  0  0
   -3.6520   -7.2050   -0.5400 H   0  0  0  0  0  0  0  0  0  0  0  0
    0.6080   -9.2350   -0.6140 H   0  0  0  0  0  0  0  0  0  0  0  0
   -4.9610   -4.9900   -1.2730 H   0  0  0  0  0  0  0  0  0  0  0  0
   -5.3170   -5.6670   -2.8800 H   0  0  0  0  0  0  0  0  0  0  0  0
   -1.2770   -5.7780   -1.5610 H   0  0  0  0  0  0  0  0  0  0  0  0
   -2.4780   -5.0570   -0.4630 H   0  0  0  0  0  0  0  0  0  0  0  0
   -1.2830   -7.7120   -0.1360 H   0  0  0  0  0  0  0  0  0  0  0  0
  1  2  1  0  0  0  0
  1  5  1  0  0  0  0
  1  9  2  0  0  0  0
  2 22  1  0  0  0  0
  2 23  1  0  0  0  0
  2 24  1  0  0  0  0
  3  4  1  0  0  0  0
  3  6  1  0  0  0  0
  3 16  2  0  0  0  0
  4 18  1  0  0  0  0
  4 19  1  0  0  0  0
  5  7  2  0  0  0  0
  5 28  1  0  0  0  0
  6  7  1  0  0  0  0
  6 14  2  0  0  0  0
  7 30  1  0  0  0  0
  8 21  1  0  0  0  0
  8 26  1  0  0  0  0
  8 27  1  0  0  0  0
  8 31  1  0  0  0  0
  9 14  1  0  0  0  0
  9 32  1  0  0  0  0
 10 11  1  0  0  0  0
 10 12  1  0  0  0  0
 10 17  2  0  0  0  0
 11 13  1  0  0  0  0
 11 25  2  0  0  0  0
 12 15  1  0  0  0  0
 13 15  1  0  0  0  0
 14 33  1  0  0  0  0
 15 34  1  0  0  0  0
 15 35  1  0  0  0  0
 17 20  1  0  0  0  0
 17 36  1  0  0  0  0
 18 26  1  0  0  0  0
 18 37  1  0  0  0  0
 18 38  1  0  0  0  0
 19 27  1  0  0  0  0
 19 39  1  0  0  0  0
 19 40  1  0  0  0  0
 20 21  1  0  0  0  0
 20 29  2  0  0  0  0
 21 41  1  0  0  0  0
 21 42  1  0  0  0  0
 25 29  1  0  0  0  0
 25 43  1  0  0  0  0
 26 44  1  0  0  0  0
 26 45  1  0  0  0  0
 27 46  1  0  0  0  0
 27 47  1  0  0  0  0
 29 48  1  0  0  0  0
M  CHG  1   8   1
M  END
>  <$CLUSTER>
583

>  <INDEX>
187005

$$$$
Chemical Block A3816/0161993
 OpenBabel04062209303D

 44 47  0  0  0  0  0  0  0  0999 V2000
   -0.8780    0.0090    0.7430 C   0  0  0  0  0  0  0  0  0  0  0  0
    0.0220    1.0220    0.4730 C   0  0  0  0  0  0  0  0  0  0  0  0
   -0.6890   -0.9760   -0.1910 N   0  0  0  0  0  0  0  0  0  0  0  0
   -1.7630    0.0280    1.7560 N   0  0  0  0  0  0  0  0  0  0  0  0
    0.7900    0.6510   -0.6560 C   0  0  0  0  0  0  0  0  0  0  0  0
    0.0270    2.1170    1.2690 N   0  0  0  0  0  0  0  0  0  0  0  0
    0.3290   -0.6120   -1.0580 C   0  0  0  0  0  0  0  0  0  0  0  0
   -1.6490    1.1730    2.4660 C   0  0  0  0  0  0  0  0  0  0  0  0
   -0.8000    2.2130    2.2690 N   0  0  0  0  0  0  0  0  0  0  0  0
   -1.4500   -2.2130   -0.2540 C   0  0  0  0  0  0  0  0  0  0  0  0
   -2.7810    1.3690    3.8820 S   0  0  0  0  0  0  0  0  0  0  0  0
   -0.7860   -3.3370    0.5200 C   0  0  0  0  0  0  0  0  0  0  0  0
   -1.3580   -4.0240    1.4940 C   0  0  0  0  0  0  0  0  0  0  0  0
    1.8350    1.2620   -1.3770 C   0  0  0  0  0  0  0  0  0  0  0  0
    0.8880   -1.2820   -2.1590 C   0  0  0  0  0  0  0  0  0  0  0  0
   -1.7830   -2.3810    6.0580 C   0  0  0  0  0  0  0  0  0  0  0  0
   -2.5230   -1.3880    5.5680 O   0  0  0  0  0  0  0  0  0  0  0  0
   -3.7080   -0.1870    3.7880 C   0  0  0  0  0  0  0  0  0  0  0  0
   -2.8600   -1.3920    4.1750 C   0  0  0  0  0  0  0  0  0  0  0  0
   -1.5080   -2.2880    7.4270 C   0  0  0  0  0  0  0  0  0  0  0  0
   -1.2820   -3.4660    5.3330 C   0  0  0  0  0  0  0  0  0  0  0  0
    2.3910    0.5990   -2.4750 C   0  0  0  0  0  0  0  0  0  0  0  0
    1.9240   -0.6550   -2.8580 C   0  0  0  0  0  0  0  0  0  0  0  0
   -0.5150   -4.4430    5.9750 C   0  0  0  0  0  0  0  0  0  0  0  0
   -0.7430   -3.2640    8.0660 C   0  0  0  0  0  0  0  0  0  0  0  0
   -0.2460   -4.3440    7.3390 C   0  0  0  0  0  0  0  0  0  0  0  0
   -1.5440   -2.5140   -1.2970 H   0  0  0  0  0  0  0  0  0  0  0  0
   -2.4410   -2.0370    0.1640 H   0  0  0  0  0  0  0  0  0  0  0  0
    0.2290   -3.5950    0.2560 H   0  0  0  0  0  0  0  0  0  0  0  0
   -0.8110   -4.8100    1.9930 H   0  0  0  0  0  0  0  0  0  0  0  0
   -2.3720   -3.7990    1.7900 H   0  0  0  0  0  0  0  0  0  0  0  0
    2.2030    2.2340   -1.0840 H   0  0  0  0  0  0  0  0  0  0  0  0
    0.5270   -2.2550   -2.4570 H   0  0  0  0  0  0  0  0  0  0  0  0
   -4.0630   -0.3220    2.7660 H   0  0  0  0  0  0  0  0  0  0  0  0
   -4.5610   -0.1280    4.4640 H   0  0  0  0  0  0  0  0  0  0  0  0
   -3.4180   -2.3010    3.9510 H   0  0  0  0  0  0  0  0  0  0  0  0
   -1.9400   -1.3770    3.5910 H   0  0  0  0  0  0  0  0  0  0  0  0
   -1.8920   -1.4530    7.9940 H   0  0  0  0  0  0  0  0  0  0  0  0
   -1.4880   -3.5500    4.2760 H   0  0  0  0  0  0  0  0  0  0  0  0
    3.1910    1.0640   -3.0320 H   0  0  0  0  0  0  0  0  0  0  0  0
    2.3690   -1.1510   -3.7080 H   0  0  0  0  0  0  0  0  0  0  0  0
   -0.1290   -5.2790    5.4110 H   0  0  0  0  0  0  0  0  0  0  0  0
   -0.5360   -3.1830    9.1230 H   0  0  0  0  0  0  0  0  0  0  0  0
    0.3460   -5.1020    7.8310 H   0  0  0  0  0  0  0  0  0  0  0  0
  1  2  2  0  0  0  0
  1  3  1  0  0  0  0
  1  4  1  0  0  0  0
  2  5  1  0  0  0  0
  2  6  1  0  0  0  0
  3  7  1  0  0  0  0
  3 10  1  0  0  0  0
  4  8  2  0  0  0  0
  5  7  2  0  0  0  0
  5 14  1  0  0  0  0
  6  9  2  0  0  0  0
  7 15  1  0  0  0  0
  8  9  1  0  0  0  0
  8 11  1  0  0  0  0
 10 12  1  0  0  0  0
 10 27  1  0  0  0  0
 10 28  1  0  0  0  0
 11 18  1  0  0  0  0
 12 13  2  0  0  0  0
 12 29  1  0  0  0  0
 13 30  1  0  0  0  0
 13 31  1  0  0  0  0
 14 22  2  0  0  0  0
 14 32  1  0  0  0  0
 15 23  2  0  0  0  0
 15 33  1  0  0  0  0
 16 17  1  0  0  0  0
 16 20  1  0  0  0  0
 16 21  2  0  0  0  0
 17 19  1  0  0  0  0
 18 19  1  0  0  0  0
 18 34  1  0  0  0  0
 18 35  1  0  0  0  0
 19 36  1  0  0  0  0
 19 37  1  0  0  0  0
 20 25  2  0  0  0  0
 20 38  1  0  0  0  0
 21 24  1  0  0  0  0
 21 39  1  0  0  0  0
 22 23  1  0  0  0  0
 22 40  1  0  0  0  0
 23 41  1  0  0  0  0
 24 26  2  0  0  0  0
 24 42  1  0  0  0  0
 25 26  1  0  0  0  0
 25 43  1  0  0  0  0
 26 44  1  0  0  0  0
M  END
>  <$CLUSTER>
243

>  <INDEX>
120541

$$$$
Biofocus 170_0148_0349
 OpenBabel04062209303D

 50 53  0  0  1  0  0  0  0  0999 V2000
   -0.2550   -0.4520   -0.8220 N   0  0  0  0  0  0  0  0  0  0  0  0
    0.9790   -1.1400   -0.9900 C   0  0  0  0  0  0  0  0  0  0  0  0
   -0.1150    0.4690    0.2340 C   0  0  0  0  0  0  0  0  0  0  0  0
    1.8550   -0.6050   -0.0110 N   0  0  0  0  0  0  0  0  0  0  0  0
    1.1770    0.3690    0.7220 C   0  0  0  0  0  0  0  0  0  0  0  0
   -1.0150    1.3230    0.7360 N   0  0  0  0  0  0  0  0  0  0  0  0
   -1.6170    6.4350    4.0430 C   0  0  0  0  0  0  0  0  0  0  0  0
    1.6490    1.1060    1.7330 N   0  0  0  0  0  0  0  0  0  0  0  0
   -1.4630   -0.6620   -1.6060 C   0  0  2  0  0  0  0  0  0  0  0  0
   -0.5530    2.0770    1.7600 C   0  0  0  0  0  0  0  0  0  0  0  0
   -2.1130    5.1660    3.4500 C   0  0  0  0  0  0  0  0  0  0  0  0
   -1.1680    4.2860    2.9130 C   0  0  0  0  0  0  0  0  0  0  0  0
    1.2480   -2.0120   -1.8040 O   0  0  0  0  0  0  0  0  0  0  0  0
   -1.5570    3.0550    2.3450 C   0  0  0  0  0  0  0  0  0  0  0  0
   -2.5000    7.4920    4.0630 N   0  0  0  0  0  0  0  0  0  0  0  0
    0.7450    1.9710    2.2460 C   0  0  0  0  0  0  0  0  0  0  0  0
   -0.4710    6.5110    4.4750 O   0  0  0  0  0  0  0  0  0  0  0  0
   -1.8610    0.5830   -2.3970 C   0  0  0  0  0  0  0  0  0  0  0  0
   -3.4650    4.8390    3.4290 C   0  0  0  0  0  0  0  0  0  0  0  0
   -2.6200   -1.1830   -0.7550 C   0  0  0  0  0  0  0  0  0  0  0  0
   -2.9350    2.7550    2.3300 C   0  0  0  0  0  0  0  0  0  0  0  0
   -3.8770    3.6330    2.8670 C   0  0  0  0  0  0  0  0  0  0  0  0
   -3.8820    7.4640    3.5570 C   0  0  0  0  0  0  0  0  0  0  0  0
   -2.0980    8.7880    4.6270 C   0  0  0  0  0  0  0  0  0  0  0  0
   -1.9920    1.8250   -1.7400 C   0  0  0  0  0  0  0  0  0  0  0  0
   -2.1490    0.5160   -3.7640 C   0  0  0  0  0  0  0  0  0  0  0  0
   -2.5460    1.6570   -4.4680 C   0  0  0  0  0  0  0  0  0  0  0  0
   -2.3890    2.9640   -2.4440 C   0  0  0  0  0  0  0  0  0  0  0  0
   -2.6670    2.8790   -3.8080 C   0  0  0  0  0  0  0  0  0  0  0  0
    2.8150   -0.8840    0.1320 H   0  0  0  0  0  0  0  0  0  0  0  0
   -1.2270   -1.4390   -2.3330 H   0  0  0  0  0  0  0  0  0  0  0  0
   -0.1220    4.5540    2.9340 H   0  0  0  0  0  0  0  0  0  0  0  0
    1.0440    2.6060    3.0670 H   0  0  0  0  0  0  0  0  0  0  0  0
   -4.1930    5.5180    3.8470 H   0  0  0  0  0  0  0  0  0  0  0  0
   -2.8900   -0.4340   -0.0110 H   0  0  0  0  0  0  0  0  0  0  0  0
   -2.3160   -2.1010   -0.2520 H   0  0  0  0  0  0  0  0  0  0  0  0
   -3.4790   -1.3860   -1.3950 H   0  0  0  0  0  0  0  0  0  0  0  0
   -3.2680    1.8250    1.8930 H   0  0  0  0  0  0  0  0  0  0  0  0
   -4.9260    3.3770    2.8470 H   0  0  0  0  0  0  0  0  0  0  0  0
   -4.3420    8.4410    3.7030 H   0  0  0  0  0  0  0  0  0  0  0  0
   -4.4520    6.7090    4.0980 H   0  0  0  0  0  0  0  0  0  0  0  0
   -3.8750    7.2210    2.4940 H   0  0  0  0  0  0  0  0  0  0  0  0
   -2.9280    9.4900    4.5520 H   0  0  0  0  0  0  0  0  0  0  0  0
   -1.2430    9.1760    4.0730 H   0  0  0  0  0  0  0  0  0  0  0  0
   -1.8250    8.6590    5.6740 H   0  0  0  0  0  0  0  0  0  0  0  0
   -1.7830    1.8950   -0.6830 H   0  0  0  0  0  0  0  0  0  0  0  0
   -2.0640   -0.4280   -4.2820 H   0  0  0  0  0  0  0  0  0  0  0  0
   -2.7590    1.5920   -5.5250 H   0  0  0  0  0  0  0  0  0  0  0  0
   -2.4810    3.9110   -1.9320 H   0  0  0  0  0  0  0  0  0  0  0  0
   -2.9760    3.7590   -4.3530 H   0  0  0  0  0  0  0  0  0  0  0  0
  1  2  1  0  0  0  0
  1  3  1  0  0  0  0
  1  9  1  0  0  0  0
  2  4  1  0  0  0  0
  2 13  2  0  0  0  0
  3  5  2  0  0  0  0
  3  6  1  0  0  0  0
  4  5  1  0  0  0  0
  4 30  1  0  0  0  0
  5  8  1  0  0  0  0
  6 10  2  0  0  0  0
  7 11  1  0  0  0  0
  7 15  1  0  0  0  0
  7 17  2  0  0  0  0
  8 16  2  0  0  0  0
  9 18  1  0  0  0  0
  9 20  1  0  0  0  0
  9 31  1  6  0  0  0
 10 14  1  0  0  0  0
 10 16  1  0  0  0  0
 11 12  1  0  0  0  0
 11 19  2  0  0  0  0
 12 14  2  0  0  0  0
 12 32  1  0  0  0  0
 14 21  1  0  0  0  0
 15 23  1  0  0  0  0
 15 24  1  0  0  0  0
 16 33  1  0  0  0  0
 18 25  1  0  0  0  0
 18 26  2  0  0  0  0
 19 22  1  0  0  0  0
 19 34  1  0  0  0  0
 20 35  1  0  0  0  0
 20 36  1  0  0  0  0
 20 37  1  0  0  0  0
 21 22  2  0  0  0  0
 21 38  1  0  0  0  0
 22 39  1  0  0  0  0
 23 40  1  0  0  0  0
 23 41  1  0  0  0  0
 23 42  1  0  0  0  0
 24 43  1  0  0  0  0
 24 44  1  0  0  0  0
 24 45  1  0  0  0  0
 25 28  2  0  0  0  0
 25 46  1  0  0  0  0
 26 27  1  0  0  0  0
 26 47  1  0  0  0  0
 27 29  2  0  0  0  0
 27 48  1  0  0  0  0
 28 29  1  0  0  0  0
 28 49  1  0  0  0  0
 29 50  1  0  0  0  0
M  END
>  <$CLUSTER>
27

>  <INDEX>
15645

$$$$
Life Chemicals F0631-0161
 OpenBabel04062209303D

 51 54  0  0  1  0  0  0  0  0999 V2000
    0.0160    0.5500   -0.0420 N   0  0  0  0  0  0  0  0  0  0  0  0
    0.4960   -0.1910   -1.0850 C   0  0  0  0  0  0  0  0  0  0  0  0
   -0.7000   -1.4920    0.6100 C   0  0  0  0  0  0  0  0  0  0  0  0
   -0.6600   -0.1800    0.9190 C   0  0  0  0  0  0  0  0  0  0  0  0
    0.1170   -1.8730   -0.9130 S   0  0  0  0  0  0  0  0  0  0  0  0
    1.1240    0.5350   -1.9640 N   0  0  0  0  0  0  0  0  0  0  0  0
    0.3410    1.8440   -0.2310 N   0  0  0  0  0  0  0  0  0  0  0  0
    1.0030    1.7790   -1.3960 C   0  0  0  0  0  0  0  0  0  0  0  0
   -1.3940   -2.5550    1.4700 C   0  0  1  0  0  0  0  0  0  0  0  0
   -2.4120   -3.3440    0.7090 N   0  3  0  0  0  0  0  0  0  0  0  0
   -0.4110   -3.5400    2.1000 C   0  0  0  0  0  0  0  0  0  0  0  0
   -1.2090    0.3940    2.0330 O   0  0  0  0  0  0  0  0  0  0  0  0
    1.3670   -5.3770    3.3280 C   0  0  0  0  0  0  0  0  0  0  0  0
   -0.5050   -3.8590    3.4850 C   0  0  0  0  0  0  0  0  0  0  0  0
    0.6070   -4.1850    1.3690 C   0  0  0  0  0  0  0  0  0  0  0  0
    1.4830   -5.0890    1.9710 C   0  0  0  0  0  0  0  0  0  0  0  0
    0.3720   -4.7630    4.0840 C   0  0  0  0  0  0  0  0  0  0  0  0
   -3.9430   -5.6160   -0.2610 O   0  0  0  0  0  0  0  0  0  0  0  0
    2.3170   -6.3660    4.0110 C   0  0  0  0  0  0  0  0  0  0  0  0
   -1.9280   -4.2490   -0.3970 C   0  0  0  0  0  0  0  0  0  0  0  0
   -3.4730   -4.0090    1.5350 C   0  0  0  0  0  0  0  0  0  0  0  0
    1.5610    2.9640   -2.0260 C   0  0  0  0  0  0  0  0  0  0  0  0
   -3.0370   -4.9240   -1.1460 C   0  0  0  0  0  0  0  0  0  0  0  0
   -4.5330   -4.7080    0.6950 C   0  0  0  0  0  0  0  0  0  0  0  0
    3.7690   -5.8820    3.9560 C   0  0  0  0  0  0  0  0  0  0  0  0
    2.1890   -7.7720    3.4180 C   0  0  0  0  0  0  0  0  0  0  0  0
   -1.8900   -1.9830    2.2540 H   0  0  0  0  0  0  0  0  0  0  0  0
   -2.8500   -2.5750    0.2220 H   0  0  0  0  0  0  0  0  0  0  0  0
   -1.6540   -0.2160    2.6260 H   0  0  0  0  0  0  0  0  0  0  0  0
   -1.2720   -3.3910    4.0840 H   0  0  0  0  0  0  0  0  0  0  0  0
    0.7120   -3.9740    0.3150 H   0  0  0  0  0  0  0  0  0  0  0  0
    2.2530   -5.5660    1.3830 H   0  0  0  0  0  0  0  0  0  0  0  0
    0.2790   -4.9870    5.1360 H   0  0  0  0  0  0  0  0  0  0  0  0
    2.0220   -6.4180    5.0590 H   0  0  0  0  0  0  0  0  0  0  0  0
   -1.2900   -5.0170    0.0400 H   0  0  0  0  0  0  0  0  0  0  0  0
   -1.3490   -3.6530   -1.1020 H   0  0  0  0  0  0  0  0  0  0  0  0
   -3.9610   -3.2510    2.1490 H   0  0  0  0  0  0  0  0  0  0  0  0
   -2.9980   -4.7480    2.1800 H   0  0  0  0  0  0  0  0  0  0  0  0
    2.0530    2.6830   -2.9570 H   0  0  0  0  0  0  0  0  0  0  0  0
    2.2870    3.4240   -1.3560 H   0  0  0  0  0  0  0  0  0  0  0  0
    0.7610    3.6740   -2.2370 H   0  0  0  0  0  0  0  0  0  0  0  0
   -3.5950   -4.1710   -1.7030 H   0  0  0  0  0  0  0  0  0  0  0  0
   -2.6050   -5.6440   -1.8410 H   0  0  0  0  0  0  0  0  0  0  0  0
   -5.1930   -5.2700    1.3550 H   0  0  0  0  0  0  0  0  0  0  0  0
   -5.1110   -3.9560    0.1580 H   0  0  0  0  0  0  0  0  0  0  0  0
    4.0920   -5.8200    2.9170 H   0  0  0  0  0  0  0  0  0  0  0  0
    4.4070   -6.5840    4.4930 H   0  0  0  0  0  0  0  0  0  0  0  0
    3.8420   -4.8980    4.4190 H   0  0  0  0  0  0  0  0  0  0  0  0
    2.4780   -7.7510    2.3670 H   0  0  0  0  0  0  0  0  0  0  0  0
    1.1560   -8.1100    3.5040 H   0  0  0  0  0  0  0  0  0  0  0  0
    2.8420   -8.4560    3.9610 H   0  0  0  0  0  0  0  0  0  0  0  0
  1  2  1  0  0  0  0
  1  4  1  0  0  0  0
  1  7  1  0  0  0  0
  2  5  1  0  0  0  0
  2  6  2  0  0  0  0
  3  4  2  0  0  0  0
  3  5  1  0  0  0  0
  3  9  1  0  0  0  0
  4 12  1  0  0  0  0
  6  8  1  0  0  0  0
  7  8  2  0  0  0  0
  8 22  1  0  0  0  0
  9 10  1  0  0  0  0
  9 11  1  0  0  0  0
  9 27  1  1  0  0  0
 10 20  1  0  0  0  0
 10 21  1  0  0  0  0
 10 28  1  0  0  0  0
 11 14  1  0  0  0  0
 11 15  2  0  0  0  0
 12 29  1  0  0  0  0
 13 16  2  0  0  0  0
 13 17  1  0  0  0  0
 13 19  1  0  0  0  0
 14 17  2  0  0  0  0
 14 30  1  0  0  0  0
 15 16  1  0  0  0  0
 15 31  1  0  0  0  0
 16 32  1  0  0  0  0
 17 33  1  0  0  0  0
 18 23  1  0  0  0  0
 18 24  1  0  0  0  0
 19 25  1  0  0  0  0
 19 26  1  0  0  0  0
 19 34  1  0  0  0  0
 20 23  1  0  0  0  0
 20 35  1  0  0  0  0
 20 36  1  0  0  0  0
 21 24  1  0  0  0  0
 21 37  1  0  0  0  0
 21 38  1  0  0  0  0
 22 39  1  0  0  0  0
 22 40  1  0  0  0  0
 22 41  1  0  0  0  0
 23 42  1  0  0  0  0
 23 43  1  0  0  0  0
 24 44  1  0  0  0  0
 24 45  1  0  0  0  0
 25 46  1  0  0  0  0
 25 47  1  0  0  0  0
 25 48  1  0  0  0  0
 26 49  1  0  0  0  0
 26 50  1  0  0  0  0
 26 51  1  0  0  0  0
M  CHG  1  10   1
M  END
>  <$CLUSTER>
924

>  <INDEX>
279190

$$$$
Chembridge 9001855
 OpenBabel04062209303D

 56 59  0  0  0  0  0  0  0  0999 V2000
    1.3630    1.4790   -0.3460 C   0  0  0  0  0  0  0  0  0  0  0  0
    0.3200    0.5500   -0.8350 C   0  0  0  0  0  0  0  0  0  0  0  0
   -0.0810   -0.6390    3.7940 C   0  0  0  0  0  0  0  0  0  0  0  0
   -0.6960   -0.9780    2.4580 C   0  0  0  0  0  0  0  0  0  0  0  0
    2.5320    1.5020   -1.0730 N   0  0  0  0  0  0  0  0  0  0  0  0
   -0.1080   -0.2420    1.4370 N   0  0  0  0  0  0  0  0  0  0  0  0
   -0.4100   -0.2730    0.0500 C   0  0  0  0  0  0  0  0  0  0  0  0
    4.4580    2.4950   -3.0700 N   0  0  0  0  0  0  0  0  0  0  0  0
   -0.9280   -0.4830    4.9240 C   0  0  0  0  0  0  0  0  0  0  0  0
    1.2970   -0.5720    3.9320 C   0  0  0  0  0  0  0  0  0  0  0  0
    1.1680    2.1590    0.6560 O   0  0  0  0  0  0  0  0  0  0  0  0
   -1.5940   -1.8090    2.3760 O   0  0  0  0  0  0  0  0  0  0  0  0
    3.6350    2.3950   -0.6630 C   0  0  0  0  0  0  0  0  0  0  0  0
    2.8260    0.7120   -2.2730 C   0  0  0  0  0  0  0  0  0  0  0  0
    3.3240    1.6230   -3.4320 C   0  0  0  0  0  0  0  0  0  0  0  0
    4.1110    3.2650   -1.8600 C   0  0  0  0  0  0  0  0  0  0  0  0
    5.6070    2.5720   -3.7260 C   0  0  0  0  0  0  0  0  0  0  0  0
   -0.3370   -0.2200    6.1660 C   0  0  0  0  0  0  0  0  0  0  0  0
    1.8670   -0.3100    5.1740 C   0  0  0  0  0  0  0  0  0  0  0  0
    0.0490    0.5360   -2.2120 C   0  0  0  0  0  0  0  0  0  0  0  0
    1.0520   -0.1330    6.2890 C   0  0  0  0  0  0  0  0  0  0  0  0
    3.5610   -0.2070    5.3160 Cl  0  0  0  0  0  0  0  0  0  0  0  0
   -2.2800   -0.5620    4.7120 O   0  0  0  0  0  0  0  0  0  0  0  0
   -1.4000   -1.1070   -0.4880 C   0  0  0  0  0  0  0  0  0  0  0  0
    5.8640    1.8010   -4.8770 C   0  0  0  0  0  0  0  0  0  0  0  0
    6.6460    3.4330   -3.3160 C   0  0  0  0  0  0  0  0  0  0  0  0
   -3.1320   -0.4230    5.8430 C   0  0  0  0  0  0  0  0  0  0  0  0
   -0.9380   -0.3020   -2.7230 C   0  0  0  0  0  0  0  0  0  0  0  0
   -1.6600   -1.1220   -1.8630 C   0  0  0  0  0  0  0  0  0  0  0  0
    7.8620    3.5180   -4.0070 C   0  0  0  0  0  0  0  0  0  0  0  0
    7.0780    1.8810   -5.5730 C   0  0  0  0  0  0  0  0  0  0  0  0
    8.0770    2.7400   -5.1370 C   0  0  0  0  0  0  0  0  0  0  0  0
    0.6250    0.3940    1.7160 H   0  0  0  0  0  0  0  0  0  0  0  0
    1.9310   -0.7240    3.0710 H   0  0  0  0  0  0  0  0  0  0  0  0
    4.4690    1.7920   -0.3050 H   0  0  0  0  0  0  0  0  0  0  0  0
    3.2880    3.0480    0.1380 H   0  0  0  0  0  0  0  0  0  0  0  0
    1.9200    0.1950   -2.5900 H   0  0  0  0  0  0  0  0  0  0  0  0
    3.5990   -0.0200   -2.0380 H   0  0  0  0  0  0  0  0  0  0  0  0
    3.6340    0.9850   -4.2600 H   0  0  0  0  0  0  0  0  0  0  0  0
    2.4950    2.2550   -3.7510 H   0  0  0  0  0  0  0  0  0  0  0  0
    3.3120    3.9610   -2.1160 H   0  0  0  0  0  0  0  0  0  0  0  0
    4.9930    3.8240   -1.5460 H   0  0  0  0  0  0  0  0  0  0  0  0
   -0.9610   -0.0830    7.0370 H   0  0  0  0  0  0  0  0  0  0  0  0
    0.6080    1.1770   -2.8770 H   0  0  0  0  0  0  0  0  0  0  0  0
    1.4950    0.0720    7.2520 H   0  0  0  0  0  0  0  0  0  0  0  0
   -1.9710   -1.7470    0.1680 H   0  0  0  0  0  0  0  0  0  0  0  0
    5.1000    1.1260   -5.2350 H   0  0  0  0  0  0  0  0  0  0  0  0
    6.4990    4.0470   -2.4400 H   0  0  0  0  0  0  0  0  0  0  0  0
   -4.1720   -0.5070    5.5270 H   0  0  0  0  0  0  0  0  0  0  0  0
   -2.9690    0.5520    6.3030 H   0  0  0  0  0  0  0  0  0  0  0  0
   -2.9080   -1.2080    6.5660 H   0  0  0  0  0  0  0  0  0  0  0  0
   -1.1420   -0.3150   -3.7830 H   0  0  0  0  0  0  0  0  0  0  0  0
   -2.4250   -1.7740   -2.2580 H   0  0  0  0  0  0  0  0  0  0  0  0
    8.6330    4.1900   -3.6600 H   0  0  0  0  0  0  0  0  0  0  0  0
    7.2360    1.2720   -6.4510 H   0  0  0  0  0  0  0  0  0  0  0  0
    9.0130    2.8030   -5.6720 H   0  0  0  0  0  0  0  0  0  0  0  0
  1  2  1  0  0  0  0
  1  5  1  0  0  0  0
  1 11  2  0  0  0  0
  2  7  2  0  0  0  0
  2 20  1  0  0  0  0
  3  4  1  0  0  0  0
  3  9  2  0  0  0  0
  3 10  1  0  0  0  0
  4  6  1  0  0  0  0
  4 12  2  0  0  0  0
  5 13  1  0  0  0  0
  5 14  1  0  0  0  0
  6  7  1  0  0  0  0
  6 33  1  0  0  0  0
  7 24  1  0  0  0  0
  8 15  1  0  0  0  0
  8 16  1  0  0  0  0
  8 17  1  0  0  0  0
  9 18  1  0  0  0  0
  9 23  1  0  0  0  0
 10 19  2  0  0  0  0
 10 34  1  0  0  0  0
 13 16  1  0  0  0  0
 13 35  1  0  0  0  0
 13 36  1  0  0  0  0
 14 15  1  0  0  0  0
 14 37  1  0  0  0  0
 14 38  1  0  0  0  0
 15 39  1  0  0  0  0
 15 40  1  0  0  0  0
 16 41  1  0  0  0  0
 16 42  1  0  0  0  0
 17 25  1  0  0  0  0
 17 26  2  0  0  0  0
 18 21  2  0  0  0  0
 18 43  1  0  0  0  0
 19 21  1  0  0  0  0
 19 22  1  0  0  0  0
 20 28  2  0  0  0  0
 20 44  1  0  0  0  0
 21 45  1  0  0  0  0
 23 27  1  0  0  0  0
 24 29  2  0  0  0  0
 24 46  1  0  0  0  0
 25 31  2  0  0  0  0
 25 47  1  0  0  0  0
 26 30  1  0  0  0  0
 26 48  1  0  0  0  0
 27 49  1  0  0  0  0
 27 50  1  0  0  0  0
 27 51  1  0  0  0  0
 28 29  1  0  0  0  0
 28 52  1  0  0  0  0
 29 53  1  0  0  0  0
 30 32  2  0  0  0  0
 30 54  1  0  0  0  0
 31 32  1  0  0  0  0
 31 55  1  0  0  0  0
 32 56  1  0  0  0  0
M  END
>  <$CLUSTER>
162

>  <INDEX>
107851

$$$$
Maybridge HTS 07015
 OpenBabel04062209303D

 45 47  0  0  0  0  0  0  0  0999 V2000
    1.5630   -0.6600   -1.8160 C   0  0  0  0  0  0  0  0  0  0  0  0
    4.0080   -0.6960   -1.8430 C   0  0  0  0  0  0  0  0  0  0  0  0
    1.5470   -1.0310   -3.1630 O   0  0  0  0  0  0  0  0  0  0  0  0
    2.7350   -1.2400   -3.8680 C   0  0  0  0  0  0  0  0  0  0  0  0
    2.7590   -0.4830   -1.1240 C   0  0  0  0  0  0  0  0  0  0  0  0
    3.9930   -1.0500   -3.1260 C   0  0  0  0  0  0  0  0  0  0  0  0
   -2.1990    0.0100    0.4520 C   0  0  0  0  0  0  0  0  0  0  0  0
    0.3360   -0.4680   -1.1720 C   0  0  0  0  0  0  0  0  0  0  0  0
   -0.8920    0.1200    0.9090 N   0  0  0  0  0  0  0  0  0  0  0  0
   -4.6420    0.2230    1.1150 C   0  0  0  0  0  0  0  0  0  0  0  0
    2.7310   -0.1130    0.2180 C   0  0  0  0  0  0  0  0  0  0  0  0
   -6.4390   -1.4940    0.2370 C   0  0  0  0  0  0  0  0  0  0  0  0
    0.2980   -0.0960    0.1750 C   0  0  0  0  0  0  0  0  0  0  0  0
    2.7370   -1.5660   -5.0490 O   0  0  0  0  0  0  0  0  0  0  0  0
   -3.1880    0.3230    1.5480 C   0  0  0  0  0  0  0  0  0  0  0  0
   -2.5830   -0.2950   -0.6720 O   0  0  0  0  0  0  0  0  0  0  0  0
   -5.0350   -1.1960    0.6620 C   0  0  0  0  0  0  0  0  0  0  0  0
   -7.2020   -1.8970    1.1590 O   0  0  0  0  0  0  0  0  0  0  0  0
    1.5080    0.0790    0.8630 C   0  0  0  0  0  0  0  0  0  0  0  0
   -6.6830   -1.3060   -0.9880 O   0  5  0  0  0  0  0  0  0  0  0  0
    5.2830   -0.5010   -1.0810 C   0  0  0  0  0  0  0  0  0  0  0  0
   -5.0040    1.2230    0.0000 C   0  0  0  0  0  0  0  0  0  0  0  0
   -5.5420    0.5740    2.3520 C   0  0  0  0  0  0  0  0  0  0  0  0
   -6.8740    1.0600    1.6460 C   0  0  0  0  0  0  0  0  0  0  0  0
   -6.5260    1.4540    0.2140 C   0  0  0  0  0  0  0  0  0  0  0  0
    4.9310   -1.2020   -3.6380 H   0  0  0  0  0  0  0  0  0  0  0  0
   -0.5860   -0.6080   -1.7180 H   0  0  0  0  0  0  0  0  0  0  0  0
   -0.7780    0.3850    1.8770 H   0  0  0  0  0  0  0  0  0  0  0  0
    3.6550    0.0250    0.7600 H   0  0  0  0  0  0  0  0  0  0  0  0
   -3.0030    1.3390    1.8970 H   0  0  0  0  0  0  0  0  0  0  0  0
   -3.0250   -0.3780    2.3670 H   0  0  0  0  0  0  0  0  0  0  0  0
   -4.8120   -1.8630    1.4950 H   0  0  0  0  0  0  0  0  0  0  0  0
   -4.3930   -1.4430   -0.1840 H   0  0  0  0  0  0  0  0  0  0  0  0
    1.4930    0.3660    1.9040 H   0  0  0  0  0  0  0  0  0  0  0  0
    5.0530   -0.2150   -0.0550 H   0  0  0  0  0  0  0  0  0  0  0  0
    5.8720    0.2850   -1.5540 H   0  0  0  0  0  0  0  0  0  0  0  0
    5.8520   -1.4310   -1.0800 H   0  0  0  0  0  0  0  0  0  0  0  0
   -4.8070    0.7990   -0.9850 H   0  0  0  0  0  0  0  0  0  0  0  0
   -4.4470    2.1530    0.1130 H   0  0  0  0  0  0  0  0  0  0  0  0
   -5.0990    1.3670    2.9550 H   0  0  0  0  0  0  0  0  0  0  0  0
   -5.7190   -0.3010    2.9770 H   0  0  0  0  0  0  0  0  0  0  0  0
   -7.2830    1.9190    2.1780 H   0  0  0  0  0  0  0  0  0  0  0  0
   -7.6070    0.2530    1.6410 H   0  0  0  0  0  0  0  0  0  0  0  0
   -7.0940    0.8400   -0.4850 H   0  0  0  0  0  0  0  0  0  0  0  0
   -6.7660    2.5050    0.0520 H   0  0  0  0  0  0  0  0  0  0  0  0
  1  3  1  0  0  0  0
  1  5  2  0  0  0  0
  1  8  1  0  0  0  0
  2  5  1  0  0  0  0
  2  6  2  0  0  0  0
  2 21  1  0  0  0  0
  3  4  1  0  0  0  0
  4  6  1  0  0  0  0
  4 14  2  0  0  0  0
  5 11  1  0  0  0  0
  6 26  1  0  0  0  0
  7  9  1  0  0  0  0
  7 15  1  0  0  0  0
  7 16  2  0  0  0  0
  8 13  2  0  0  0  0
  8 27  1  0  0  0  0
  9 13  1  0  0  0  0
  9 28  1  0  0  0  0
 10 15  1  0  0  0  0
 10 17  1  0  0  0  0
 10 22  1  0  0  0  0
 10 23  1  0  0  0  0
 11 19  2  0  0  0  0
 11 29  1  0  0  0  0
 12 17  1  0  0  0  0
 12 18  2  0  0  0  0
 12 20  1  0  0  0  0
 13 19  1  0  0  0  0
 15 30  1  0  0  0  0
 15 31  1  0  0  0  0
 17 32  1  0  0  0  0
 17 33  1  0  0  0  0
 19 34  1  0  0  0  0
 21 35  1  0  0  0  0
 21 36  1  0  0  0  0
 21 37  1  0  0  0  0
 22 25  1  0  0  0  0
 22 38  1  0  0  0  0
 22 39  1  0  0  0  0
 23 24  1  0  0  0  0
 23 40  1  0  0  0  0
 23 41  1  0  0  0  0
 24 25  1  0  0  0  0
 24 42  1  0  0  0  0
 24 43  1  0  0  0  0
 25 44  1  0  0  0  0
 25 45  1  0  0  0  0
M  CHG  1  20  -1
M  END
>  <$CLUSTER>
899

>  <INDEX>
551863

$$$$
Tripos 1554-03007
 OpenBabel04062209303D

 34 35  0  0  0  0  0  0  0  0999 V2000
    0.7130    0.6750    0.2720 S   0  0  0  0  0  0  0  0  0  0  0  0
   -0.7380   -0.1800    0.3130 N   0  0  0  0  0  0  0  0  0  0  0  0
    0.6240    1.5020   -1.3140 C   0  0  0  0  0  0  0  0  0  0  0  0
   -2.3380   -3.3830   -0.8660 C   0  0  0  0  0  0  0  0  0  0  0  0
   -2.1100   -2.1180   -0.1940 C   0  0  0  0  0  0  0  0  0  0  0  0
    0.6480    1.6750    1.3260 O   0  0  0  0  0  0  0  0  0  0  0  0
    1.8020   -0.2870    0.2480 O   0  0  0  0  0  0  0  0  0  0  0  0
   -3.4180   -4.2040   -0.5210 C   0  0  0  0  0  0  0  0  0  0  0  0
   -0.9400   -1.2660   -0.6510 C   0  0  0  0  0  0  0  0  0  0  0  0
   -3.0490   -1.7670    0.7710 C   0  0  0  0  0  0  0  0  0  0  0  0
    1.1520    0.8630   -2.4310 C   0  0  0  0  0  0  0  0  0  0  0  0
    0.0950    2.7810   -1.3850 C   0  0  0  0  0  0  0  0  0  0  0  0
   -4.3090   -3.8060    0.4730 C   0  0  0  0  0  0  0  0  0  0  0  0
   -1.2950   -3.9420   -2.1290 Cl  0  0  0  0  0  0  0  0  0  0  0  0
    0.5770    2.8030   -3.7540 C   0  0  0  0  0  0  0  0  0  0  0  0
   -4.1270   -2.5860    1.1160 C   0  0  0  0  0  0  0  0  0  0  0  0
    1.1200    1.5210   -3.6620 C   0  0  0  0  0  0  0  0  0  0  0  0
    0.0650    3.4330   -2.6180 C   0  0  0  0  0  0  0  0  0  0  0  0
   -5.3050   -4.6490    0.7460 F   0  0  0  0  0  0  0  0  0  0  0  0
    0.4970    3.5550   -4.9130 O   0  0  0  0  0  0  0  0  0  0  0  0
    1.0060    2.9630   -6.1030 C   0  0  0  0  0  0  0  0  0  0  0  0
   -1.4820    0.4880    0.1690 H   0  0  0  0  0  0  0  0  0  0  0  0
   -3.5610   -5.1480   -1.0260 H   0  0  0  0  0  0  0  0  0  0  0  0
   -0.0400   -1.8790   -0.7050 H   0  0  0  0  0  0  0  0  0  0  0  0
   -1.1540   -0.8470   -1.6340 H   0  0  0  0  0  0  0  0  0  0  0  0
   -2.9400   -0.8190    1.2760 H   0  0  0  0  0  0  0  0  0  0  0  0
    1.5790   -0.1250   -2.3470 H   0  0  0  0  0  0  0  0  0  0  0  0
   -0.2880    3.2660   -0.4990 H   0  0  0  0  0  0  0  0  0  0  0  0
   -4.8200   -2.2720    1.8830 H   0  0  0  0  0  0  0  0  0  0  0  0
    1.5160    1.0380   -4.5430 H   0  0  0  0  0  0  0  0  0  0  0  0
   -0.3540    4.4250   -2.6940 H   0  0  0  0  0  0  0  0  0  0  0  0
    0.8820    3.6560   -6.9350 H   0  0  0  0  0  0  0  0  0  0  0  0
    0.4610    2.0420   -6.3130 H   0  0  0  0  0  0  0  0  0  0  0  0
    2.0640    2.7370   -5.9730 H   0  0  0  0  0  0  0  0  0  0  0  0
  1  2  1  0  0  0  0
  1  3  1  0  0  0  0
  1  6  2  0  0  0  0
  1  7  2  0  0  0  0
  2  9  1  0  0  0  0
  2 22  1  0  0  0  0
  3 11  2  0  0  0  0
  3 12  1  0  0  0  0
  4  5  2  0  0  0  0
  4  8  1  0  0  0  0
  4 14  1  0  0  0  0
  5  9  1  0  0  0  0
  5 10  1  0  0  0  0
  8 13  2  0  0  0  0
  8 23  1  0  0  0  0
  9 24  1  0  0  0  0
  9 25  1  0  0  0  0
 10 16  2  0  0  0  0
 10 26  1  0  0  0  0
 11 17  1  0  0  0  0
 11 27  1  0  0  0  0
 12 18  2  0  0  0  0
 12 28  1  0  0  0  0
 13 16  1  0  0  0  0
 13 19  1  0  0  0  0
 15 17  2  0  0  0  0
 15 18  1  0  0  0  0
 15 20  1  0  0  0  0
 16 29  1  0  0  0  0
 17 30  1  0  0  0  0
 18 31  1  0  0  0  0
 20 21  1  0  0  0  0
 21 32  1  0  0  0  0
 21 33  1  0  0  0  0
 21 34  1  0  0  0  0
M  END
>  <$CLUSTER>
92

>  <INDEX>
466465

$$$$
Asinex ASN 06116813
 OpenBabel04062209303D

 56 60  0  0  0  0  0  0  0  0999 V2000
    1.0680    0.5360   -0.4430 N   0  0  0  0  0  0  0  0  0  0  0  0
    0.2310    0.8730    0.6010 C   0  0  0  0  0  0  0  0  0  0  0  0
   -0.8890    0.0350    0.9090 C   0  0  0  0  0  0  0  0  0  0  0  0
    2.0410    1.4560   -0.5530 N   0  0  0  0  0  0  0  0  0  0  0  0
    1.8010    2.3360    0.4110 N   0  0  0  0  0  0  0  0  0  0  0  0
    0.6840    1.9890    1.1350 N   0  0  0  0  0  0  0  0  0  0  0  0
    0.9190   -0.5940   -1.2540 C   0  0  0  0  0  0  0  0  0  0  0  0
   -1.0700   -1.0750    0.1590 C   0  0  0  0  0  0  0  0  0  0  0  0
   -2.6300    1.5330    1.8200 N   0  0  0  0  0  0  0  0  0  0  0  0
   -2.2950    2.8050    2.2990 C   0  0  0  0  0  0  0  0  0  0  0  0
   -0.1730   -1.4250   -0.9540 C   0  0  0  0  0  0  0  0  0  0  0  0
   -1.8430    0.3240    2.0510 C   0  0  0  0  0  0  0  0  0  0  0  0
   -1.0160    2.9140    3.0930 C   0  0  0  0  0  0  0  0  0  0  0  0
   -3.8580    1.3850    1.0280 C   0  0  0  0  0  0  0  0  0  0  0  0
   -2.9820    3.8140    2.1190 O   0  0  0  0  0  0  0  0  0  0  0  0
   -0.3820    4.1460    3.1240 C   0  0  0  0  0  0  0  0  0  0  0  0
    1.7980   -0.8810   -2.2970 C   0  0  0  0  0  0  0  0  0  0  0  0
    0.8040    4.2900    3.8460 C   0  0  0  0  0  0  0  0  0  0  0  0
   -5.0550    1.0550    1.9060 C   0  0  0  0  0  0  0  0  0  0  0  0
   -0.3760   -2.5700   -1.7270 C   0  0  0  0  0  0  0  0  0  0  0  0
   -0.4950    1.8200    3.7750 C   0  0  0  0  0  0  0  0  0  0  0  0
    1.3510    5.5570    3.8060 O   0  0  0  0  0  0  0  0  0  0  0  0
    0.4990   -2.8690   -2.7760 C   0  0  0  0  0  0  0  0  0  0  0  0
    0.6920    1.9700    4.4980 C   0  0  0  0  0  0  0  0  0  0  0  0
    1.5800   -2.0280   -3.0590 C   0  0  0  0  0  0  0  0  0  0  0  0
    2.9440    0.0160   -2.5930 C   0  0  0  0  0  0  0  0  0  0  0  0
    1.3420    3.2020    4.5310 C   0  0  0  0  0  0  0  0  0  0  0  0
   -5.9500    2.0610    2.2930 C   0  0  0  0  0  0  0  0  0  0  0  0
   -5.2670   -0.2580    2.3490 C   0  0  0  0  0  0  0  0  0  0  0  0
    2.5620    5.7600    4.5250 C   0  0  0  0  0  0  0  0  0  0  0  0
   -6.3710   -0.5640    3.1490 C   0  0  0  0  0  0  0  0  0  0  0  0
   -7.0540    1.7530    3.0940 C   0  0  0  0  0  0  0  0  0  0  0  0
   -7.2650    0.4410    3.5190 C   0  0  0  0  0  0  0  0  0  0  0  0
   -1.9010   -1.7270    0.3840 H   0  0  0  0  0  0  0  0  0  0  0  0
   -1.2660    0.4500    2.9670 H   0  0  0  0  0  0  0  0  0  0  0  0
   -2.5220   -0.5210    2.1630 H   0  0  0  0  0  0  0  0  0  0  0  0
   -3.7180    0.5820    0.3050 H   0  0  0  0  0  0  0  0  0  0  0  0
   -4.0530    2.3190    0.5000 H   0  0  0  0  0  0  0  0  0  0  0  0
   -0.8020    4.9880    2.5940 H   0  0  0  0  0  0  0  0  0  0  0  0
   -1.2090   -3.2240   -1.5150 H   0  0  0  0  0  0  0  0  0  0  0  0
   -1.0010    0.8660    3.7470 H   0  0  0  0  0  0  0  0  0  0  0  0
    0.3390   -3.7550   -3.3720 H   0  0  0  0  0  0  0  0  0  0  0  0
    1.1070    1.1280    5.0330 H   0  0  0  0  0  0  0  0  0  0  0  0
    2.2490   -2.2680   -3.8720 H   0  0  0  0  0  0  0  0  0  0  0  0
    2.9430    0.8510   -1.8920 H   0  0  0  0  0  0  0  0  0  0  0  0
    2.8550    0.3960   -3.6110 H   0  0  0  0  0  0  0  0  0  0  0  0
    3.8760   -0.5400   -2.4940 H   0  0  0  0  0  0  0  0  0  0  0  0
    2.2610    3.3140    5.0870 H   0  0  0  0  0  0  0  0  0  0  0  0
   -5.7870    3.0790    1.9710 H   0  0  0  0  0  0  0  0  0  0  0  0
   -4.5730   -1.0370    2.0700 H   0  0  0  0  0  0  0  0  0  0  0  0
    2.8830    6.7950    4.4110 H   0  0  0  0  0  0  0  0  0  0  0  0
    3.3320    5.0960    4.1340 H   0  0  0  0  0  0  0  0  0  0  0  0
    2.3980    5.5450    5.5810 H   0  0  0  0  0  0  0  0  0  0  0  0
   -6.5320   -1.5790    3.4810 H   0  0  0  0  0  0  0  0  0  0  0  0
   -7.7440    2.5320    3.3840 H   0  0  0  0  0  0  0  0  0  0  0  0
   -8.1200    0.2030    4.1340 H   0  0  0  0  0  0  0  0  0  0  0  0
  1  2  1  0  0  0  0
  1  4  1  0  0  0  0
  1  7  1  0  0  0  0
  2  3  1  0  0  0  0
  2  6  2  0  0  0  0
  3  8  2  0  0  0  0
  3 12  1  0  0  0  0
  4  5  2  0  0  0  0
  5  6  1  0  0  0  0
  7 11  2  0  0  0  0
  7 17  1  0  0  0  0
  8 11  1  0  0  0  0
  8 34  1  0  0  0  0
  9 10  1  0  0  0  0
  9 12  1  0  0  0  0
  9 14  1  0  0  0  0
 10 13  1  0  0  0  0
 10 15  2  0  0  0  0
 11 20  1  0  0  0  0
 12 35  1  0  0  0  0
 12 36  1  0  0  0  0
 13 16  2  0  0  0  0
 13 21  1  0  0  0  0
 14 19  1  0  0  0  0
 14 37  1  0  0  0  0
 14 38  1  0  0  0  0
 16 18  1  0  0  0  0
 16 39  1  0  0  0  0
 17 25  2  0  0  0  0
 17 26  1  0  0  0  0
 18 22  1  0  0  0  0
 18 27  2  0  0  0  0
 19 28  1  0  0  0  0
 19 29  2  0  0  0  0
 20 23  2  0  0  0  0
 20 40  1  0  0  0  0
 21 24  2  0  0  0  0
 21 41  1  0  0  0  0
 22 30  1  0  0  0  0
 23 25  1  0  0  0  0
 23 42  1  0  0  0  0
 24 27  1  0  0  0  0
 24 43  1  0  0  0  0
 25 44  1  0  0  0  0
 26 45  1  0  0  0  0
 26 46  1  0  0  0  0
 26 47  1  0  0  0  0
 27 48  1  0  0  0  0
 28 32  2  0  0  0  0
 28 49  1  0  0  0  0
 29 31  1  0  0  0  0
 29 50  1  0  0  0  0
 30 51  1  0  0  0  0
 30 52  1  0  0  0  0
 30 53  1  0  0  0  0
 31 33  2  0  0  0  0
 31 54  1  0  0  0  0
 32 33  1  0  0  0  0
 32 55  1  0  0  0  0
 33 56  1  0  0  0  0
M  END
>  <$CLUSTER>
245

>  <INDEX>
154751

$$$$
Tripos 1559-05871
 OpenBabel04062209303D

 34 35  0  0  1  0  0  0  0  0999 V2000
    1.7470    0.0250   -0.2700 S   0  0  0  0  0  0  0  0  0  0  0  0
    0.0430   -0.1500    0.1250 C   0  0  0  0  0  0  0  0  0  0  0  0
    2.5180   -1.1410    0.6390 N   0  0  0  0  0  0  0  0  0  0  0  0
   -0.9040    0.6860   -0.4710 C   0  0  0  0  0  0  0  0  0  0  0  0
   -0.3700   -1.1300    1.0390 C   0  0  0  0  0  0  0  0  0  0  0  0
   -2.2600    0.5370   -0.1480 C   0  0  0  0  0  0  0  0  0  0  0  0
    1.9280   -0.3500   -1.6610 O   0  0  0  0  0  0  0  0  0  0  0  0
    2.1970    1.3080    0.2370 O   0  0  0  0  0  0  0  0  0  0  0  0
   -2.6660   -0.4390    0.7620 C   0  0  0  0  0  0  0  0  0  0  0  0
   -1.7210   -1.2710    1.3550 C   0  0  0  0  0  0  0  0  0  0  0  0
    2.2690   -2.6320    0.3710 C   0  0  1  0  0  0  0  0  0  0  0  0
   -0.5120    1.9250   -1.6090 Cl  0  0  0  0  0  0  0  0  0  0  0  0
    2.5650   -0.9990    2.1580 C   0  0  0  0  0  0  0  0  0  0  0  0
   -4.3190   -0.6000    1.1360 Cl  0  0  0  0  0  0  0  0  0  0  0  0
    3.5430   -3.2190   -0.2400 C   0  0  0  0  0  0  0  0  0  0  0  0
    3.6820   -2.8010   -1.5930 O   0  0  0  0  0  0  0  0  0  0  0  0
    2.7430   -2.4050    2.7090 C   0  0  0  0  0  0  0  0  0  0  0  0
    1.9430   -3.2480    1.7340 C   0  0  0  0  0  0  0  0  0  0  0  0
   -2.1500   -2.3170    2.3320 C   0  0  0  0  0  0  0  0  0  0  0  0
    0.3610   -1.7780    1.5000 H   0  0  0  0  0  0  0  0  0  0  0  0
   -2.9950    1.1820   -0.6070 H   0  0  0  0  0  0  0  0  0  0  0  0
    1.4520   -2.8250   -0.3240 H   0  0  0  0  0  0  0  0  0  0  0  0
    3.4040   -0.3680    2.4530 H   0  0  0  0  0  0  0  0  0  0  0  0
    1.6360   -0.5640    2.5260 H   0  0  0  0  0  0  0  0  0  0  0  0
    3.4900   -4.3070   -0.2040 H   0  0  0  0  0  0  0  0  0  0  0  0
    4.4060   -2.8780    0.3320 H   0  0  0  0  0  0  0  0  0  0  0  0
    2.9120   -3.1130   -2.0740 H   0  0  0  0  0  0  0  0  0  0  0  0
    3.7930   -2.6960    2.7110 H   0  0  0  0  0  0  0  0  0  0  0  0
    2.3420   -2.4850    3.7190 H   0  0  0  0  0  0  0  0  0  0  0  0
    0.8760   -3.1800    1.9460 H   0  0  0  0  0  0  0  0  0  0  0  0
    2.2560   -4.2910    1.7740 H   0  0  0  0  0  0  0  0  0  0  0  0
   -1.2760   -2.8640    2.6860 H   0  0  0  0  0  0  0  0  0  0  0  0
   -2.8390   -3.0080    1.8460 H   0  0  0  0  0  0  0  0  0  0  0  0
   -2.6480   -1.8420    3.1770 H   0  0  0  0  0  0  0  0  0  0  0  0
  1  2  1  0  0  0  0
  1  3  1  0  0  0  0
  1  7  2  0  0  0  0
  1  8  2  0  0  0  0
  2  4  1  0  0  0  0
  2  5  2  0  0  0  0
  3 11  1  0  0  0  0
  3 13  1  0  0  0  0
  4  6  2  0  0  0  0
  4 12  1  0  0  0  0
  5 10  1  0  0  0  0
  5 20  1  0  0  0  0
  6  9  1  0  0  0  0
  6 21  1  0  0  0  0
  9 10  2  0  0  0  0
  9 14  1  0  0  0  0
 10 19  1  0  0  0  0
 11 15  1  0  0  0  0
 11 18  1  0  0  0  0
 11 22  1  6  0  0  0
 13 17  1  0  0  0  0
 13 23  1  0  0  0  0
 13 24  1  0  0  0  0
 15 16  1  0  0  0  0
 15 25  1  0  0  0  0
 15 26  1  0  0  0  0
 16 27  1  0  0  0  0
 17 18  1  0  0  0  0
 17 28  1  0  0  0  0
 17 29  1  0  0  0  0
 18 30  1  0  0  0  0
 18 31  1  0  0  0  0
 19 32  1  0  0  0  0
 19 33  1  0  0  0  0
 19 34  1  0  0  0  0
M  END
>  <$CLUSTER>
725

>  <INDEX>
474190

$$$$
Specs AN-648/40682295
 OpenBabel04062209303D

 39 40  0  0  0  0  0  0  0  0999 V2000
    1.1660    0.6790   -0.8630 N   0  0  0  0  0  0  0  0  0  0  0  0
    0.9360    0.3810   -2.1000 C   0  0  0  0  0  0  0  0  0  0  0  0
    1.8480    0.8640   -3.1840 C   0  0  0  0  0  0  0  0  0  0  0  0
   -1.0580   -1.4330   -6.2110 C   0  0  0  0  0  0  0  0  0  0  0  0
   -0.4420   -1.5660    1.6150 C   0  0  0  0  0  0  0  0  0  0  0  0
    1.5630    0.5170   -4.5210 C   0  0  0  0  0  0  0  0  0  0  0  0
    0.4520   -0.2530   -4.7500 O   0  0  0  0  0  0  0  0  0  0  0  0
   -1.5620   -0.8150    1.9680 C   0  0  0  0  0  0  0  0  0  0  0  0
    0.4610   -1.0730    0.6720 C   0  0  0  0  0  0  0  0  0  0  0  0
   -1.7420   -1.7790   -5.2520 O   0  0  0  0  0  0  0  0  0  0  0  0
    0.2460    0.1730    0.0700 C   0  0  0  0  0  0  0  0  0  0  0  0
   -1.7780    0.4310    1.3820 C   0  0  0  0  0  0  0  0  0  0  0  0
    0.1620   -0.6040   -6.0980 C   0  0  0  0  0  0  0  0  0  0  0  0
   -1.3420   -1.7760   -7.5140 N   0  0  0  0  0  0  0  0  0  0  0  0
   -0.8760    0.9260    0.4390 C   0  0  0  0  0  0  0  0  0  0  0  0
    2.9540    1.6420   -2.8660 C   0  0  0  0  0  0  0  0  0  0  0  0
   -0.2020   -2.9010    2.2420 C   0  0  0  0  0  0  0  0  0  0  0  0
   -2.5340   -1.3400    2.9740 C   0  0  0  0  0  0  0  0  0  0  0  0
    2.4260    0.9770   -5.5240 C   0  0  0  0  0  0  0  0  0  0  0  0
    3.8020    2.0910   -3.8770 C   0  0  0  0  0  0  0  0  0  0  0  0
    3.5380    1.7590   -5.2020 C   0  0  0  0  0  0  0  0  0  0  0  0
    0.0770   -0.2230   -2.3540 H   0  0  0  0  0  0  0  0  0  0  0  0
    1.3300   -1.6560    0.4050 H   0  0  0  0  0  0  0  0  0  0  0  0
   -2.6440    1.0140    1.6580 H   0  0  0  0  0  0  0  0  0  0  0  0
    0.0200    0.3090   -6.6760 H   0  0  0  0  0  0  0  0  0  0  0  0
    1.0050   -1.1630   -6.5040 H   0  0  0  0  0  0  0  0  0  0  0  0
   -2.1520   -2.3430   -7.7220 H   0  0  0  0  0  0  0  0  0  0  0  0
   -0.7410   -1.4610   -8.2620 H   0  0  0  0  0  0  0  0  0  0  0  0
   -1.0440    1.8940   -0.0080 H   0  0  0  0  0  0  0  0  0  0  0  0
    3.1570    1.8990   -1.8370 H   0  0  0  0  0  0  0  0  0  0  0  0
   -1.0030   -3.1200    2.9480 H   0  0  0  0  0  0  0  0  0  0  0  0
    0.7530   -2.8890    2.7680 H   0  0  0  0  0  0  0  0  0  0  0  0
   -0.1800   -3.6680    1.4670 H   0  0  0  0  0  0  0  0  0  0  0  0
   -2.2050   -2.3190    3.3210 H   0  0  0  0  0  0  0  0  0  0  0  0
   -3.5190   -1.4290    2.5160 H   0  0  0  0  0  0  0  0  0  0  0  0
   -2.5880   -0.6540    3.8200 H   0  0  0  0  0  0  0  0  0  0  0  0
    2.2300    0.7250   -6.5560 H   0  0  0  0  0  0  0  0  0  0  0  0
    4.6630    2.6960   -3.6320 H   0  0  0  0  0  0  0  0  0  0  0  0
    4.1950    2.1070   -5.9850 H   0  0  0  0  0  0  0  0  0  0  0  0
  1  2  2  0  0  0  0
  1 11  1  0  0  0  0
  2  3  1  0  0  0  0
  2 22  1  0  0  0  0
  3  6  2  0  0  0  0
  3 16  1  0  0  0  0
  4 10  2  0  0  0  0
  4 13  1  0  0  0  0
  4 14  1  0  0  0  0
  5  8  1  0  0  0  0
  5  9  2  0  0  0  0
  5 17  1  0  0  0  0
  6  7  1  0  0  0  0
  6 19  1  0  0  0  0
  7 13  1  0  0  0  0
  8 12  2  0  0  0  0
  8 18  1  0  0  0  0
  9 11  1  0  0  0  0
  9 23  1  0  0  0  0
 11 15  2  0  0  0  0
 12 15  1  0  0  0  0
 12 24  1  0  0  0  0
 13 25  1  0  0  0  0
 13 26  1  0  0  0  0
 14 27  1  0  0  0  0
 14 28  1  0  0  0  0
 15 29  1  0  0  0  0
 16 20  2  0  0  0  0
 16 30  1  0  0  0  0
 17 31  1  0  0  0  0
 17 32  1  0  0  0  0
 17 33  1  0  0  0  0
 18 34  1  0  0  0  0
 18 35  1  0  0  0  0
 18 36  1  0  0  0  0
 19 21  2  0  0  0  0
 19 37  1  0  0  0  0
 20 21  1  0  0  0  0
 20 38  1  0  0  0  0
 21 39  1  0  0  0  0
M  END
>  <$CLUSTER>
813

>  <INDEX>
526345

$$$$
ASDI 150016433
 OpenBabel04062209303D

 17 17  0  0  1  0  0  0  0  0999 V2000
    0.8940    1.4210   -1.1830 N   0  0  0  0  0  0  0  0  0  0  0  0
    0.3610    0.7280   -0.4110 C   0  0  0  0  0  0  0  0  0  0  0  0
   -0.3170   -0.1470    0.5770 C   0  0  1  0  0  0  0  0  0  0  0  0
   -1.5120   -0.8490   -0.0580 C   0  0  0  0  0  0  0  0  0  0  0  0
    0.5740   -1.1530    1.0760 O   0  0  0  0  0  0  0  0  0  0  0  0
   -2.8340   -0.4630    0.3090 C   0  0  0  0  0  0  0  0  0  0  0  0
   -1.3760   -1.8620   -1.0150 C   0  0  0  0  0  0  0  0  0  0  0  0
   -3.9460   -1.0770   -0.2710 C   0  0  0  0  0  0  0  0  0  0  0  0
   -2.4890   -2.4740   -1.5930 C   0  0  0  0  0  0  0  0  0  0  0  0
   -3.7740   -2.0820   -1.2210 C   0  0  0  0  0  0  0  0  0  0  0  0
   -0.6460    0.4920    1.3970 H   0  0  0  0  0  0  0  0  0  0  0  0
    0.8440   -1.6970    0.3320 H   0  0  0  0  0  0  0  0  0  0  0  0
   -2.9780    0.3140    1.0450 H   0  0  0  0  0  0  0  0  0  0  0  0
   -0.3870   -2.1770   -1.3130 H   0  0  0  0  0  0  0  0  0  0  0  0
   -4.9410   -0.7720    0.0170 H   0  0  0  0  0  0  0  0  0  0  0  0
   -2.3550   -3.2520   -2.3300 H   0  0  0  0  0  0  0  0  0  0  0  0
   -4.6350   -2.5560   -1.6680 H   0  0  0  0  0  0  0  0  0  0  0  0
  1  2  3  0  0  0  0
  2  3  1  0  0  0  0
  3  4  1  0  0  0  0
  3  5  1  0  0  0  0
  3 11  1  1  0  0  0
  4  6  2  0  0  0  0
  4  7  1  0  0  0  0
  5 12  1  0  0  0  0
  6  8  1  0  0  0  0
  6 13  1  0  0  0  0
  7  9  2  0  0  0  0
  7 14  1  0  0  0  0
  8 10  2  0  0  0  0
  8 15  1  0  0  0  0
  9 10  1  0  0  0  0
  9 16  1  0  0  0  0
 10 17  1  0  0  0  0
M  END
>  <$CLUSTER>
24

>  <INDEX>
14597

$$$$
Tripos 1557-01752
 OpenBabel04062209303D

 42 44  0  0  0  0  0  0  0  0999 V2000
    0.2400    0.5420   -1.8580 S   0  0  0  0  0  0  0  0  0  0  0  0
    0.0780    0.2060   -0.1930 C   0  0  0  0  0  0  0  0  0  0  0  0
   -0.9990   -0.3360    0.4550 C   0  0  0  0  0  0  0  0  0  0  0  0
    1.0150    0.4900    0.8300 C   0  0  0  0  0  0  0  0  0  0  0  0
    0.5590    0.1080    2.0320 N   0  0  0  0  0  0  0  0  0  0  0  0
   -0.6690   -0.3900    1.7770 N   0  0  0  0  0  0  0  0  0  0  0  0
   -0.7060   -0.5700   -2.7340 N   0  0  0  0  0  0  0  0  0  0  0  0
   -2.5210   -2.7640   -3.4830 N   0  0  0  0  0  0  0  0  0  0  0  0
    1.6360    0.2840   -2.1440 O   0  0  0  0  0  0  0  0  0  0  0  0
   -0.3370    1.8650   -1.9830 O   0  0  0  0  0  0  0  0  0  0  0  0
   -0.2510   -1.9670   -2.6680 C   0  0  0  0  0  0  0  0  0  0  0  0
   -2.1670   -0.4350   -2.5290 C   0  0  0  0  0  0  0  0  0  0  0  0
   -3.3320   -3.7950   -3.2860 C   0  0  0  0  0  0  0  0  0  0  0  0
   -1.0660   -2.8490   -3.6760 C   0  0  0  0  0  0  0  0  0  0  0  0
   -2.9340   -1.3550   -3.5410 C   0  0  0  0  0  0  0  0  0  0  0  0
   -2.5240   -0.8670   -0.0760 Cl  0  0  0  0  0  0  0  0  0  0  0  0
   -4.7210   -3.6320   -3.1070 C   0  0  0  0  0  0  0  0  0  0  0  0
   -2.8570   -5.1230   -3.2420 C   0  0  0  0  0  0  0  0  0  0  0  0
    2.3510    1.1250    0.7270 C   0  0  0  0  0  0  0  0  0  0  0  0
   -1.4580   -0.8940    2.8750 C   0  0  0  0  0  0  0  0  0  0  0  0
   -5.0740   -6.0120   -2.8630 C   0  0  0  0  0  0  0  0  0  0  0  0
   -5.5800   -4.7200   -2.8990 C   0  0  0  0  0  0  0  0  0  0  0  0
   -3.7110   -6.2130   -3.0340 C   0  0  0  0  0  0  0  0  0  0  0  0
   -5.9530   -6.9900   -2.6610 F   0  0  0  0  0  0  0  0  0  0  0  0
   -0.3980   -2.3460   -1.6570 H   0  0  0  0  0  0  0  0  0  0  0  0
    0.8080   -2.0130   -2.9230 H   0  0  0  0  0  0  0  0  0  0  0  0
   -2.4600    0.6020   -2.6890 H   0  0  0  0  0  0  0  0  0  0  0  0
   -2.4180   -0.7300   -1.5100 H   0  0  0  0  0  0  0  0  0  0  0  0
   -0.8320   -2.5210   -4.6890 H   0  0  0  0  0  0  0  0  0  0  0  0
   -0.7610   -3.8880   -3.5510 H   0  0  0  0  0  0  0  0  0  0  0  0
   -4.0000   -1.2990   -3.3190 H   0  0  0  0  0  0  0  0  0  0  0  0
   -2.7530   -0.9840   -4.5500 H   0  0  0  0  0  0  0  0  0  0  0  0
   -5.1370   -2.6360   -3.1310 H   0  0  0  0  0  0  0  0  0  0  0  0
   -1.8000   -5.3050   -3.3730 H   0  0  0  0  0  0  0  0  0  0  0  0
    2.5580    1.3690   -0.3150 H   0  0  0  0  0  0  0  0  0  0  0  0
    3.1100    0.4360    1.0970 H   0  0  0  0  0  0  0  0  0  0  0  0
    2.3670    2.0370    1.3240 H   0  0  0  0  0  0  0  0  0  0  0  0
   -2.4150   -1.2560    2.4990 H   0  0  0  0  0  0  0  0  0  0  0  0
   -1.6300   -0.0950    3.5960 H   0  0  0  0  0  0  0  0  0  0  0  0
   -0.9250   -1.7120    3.3600 H   0  0  0  0  0  0  0  0  0  0  0  0
   -6.6390   -4.5520   -2.7660 H   0  0  0  0  0  0  0  0  0  0  0  0
   -3.3080   -7.2140   -3.0060 H   0  0  0  0  0  0  0  0  0  0  0  0
  1  2  1  0  0  0  0
  1  7  1  0  0  0  0
  1  9  2  0  0  0  0
  1 10  2  0  0  0  0
  2  3  2  0  0  0  0
  2  4  1  0  0  0  0
  3  6  1  0  0  0  0
  3 16  1  0  0  0  0
  4  5  2  0  0  0  0
  4 19  1  0  0  0  0
  5  6  1  0  0  0  0
  6 20  1  0  0  0  0
  7 11  1  0  0  0  0
  7 12  1  0  0  0  0
  8 13  1  0  0  0  0
  8 14  1  0  0  0  0
  8 15  1  0  0  0  0
 11 14  1  0  0  0  0
 11 25  1  0  0  0  0
 11 26  1  0  0  0  0
 12 15  1  0  0  0  0
 12 27  1  0  0  0  0
 12 28  1  0  0  0  0
 13 17  2  0  0  0  0
 13 18  1  0  0  0  0
 14 29  1  0  0  0  0
 14 30  1  0  0  0  0
 15 31  1  0  0  0  0
 15 32  1  0  0  0  0
 17 22  1  0  0  0  0
 17 33  1  0  0  0  0
 18 23  2  0  0  0  0
 18 34  1  0  0  0  0
 19 35  1  0  0  0  0
 19 36  1  0  0  0  0
 19 37  1  0  0  0  0
 20 38  1  0  0  0  0
 20 39  1  0  0  0  0
 20 40  1  0  0  0  0
 21 22  2  0  0  0  0
 21 23  1  0  0  0  0
 21 24  1  0  0  0  0
 22 41  1  0  0  0  0
 23 42  1  0  0  0  0
M  END
>  <$CLUSTER>
693

>  <INDEX>
469101

$$$$
Tripos 1518-06794
 OpenBabel04062209303D

 51 54  0  0  1  0  0  0  0  0999 V2000
    0.5650   -0.3340    1.0610 N   0  0  0  0  0  0  0  0  0  0  0  0
   -0.5370   -3.5450   -1.8880 C   0  0  0  0  0  0  0  0  0  0  0  0
    0.1940    0.2220   -0.1360 C   0  0  0  0  0  0  0  0  0  0  0  0
   -0.5980   -0.6010    1.5990 C   0  0  0  0  0  0  0  0  0  0  0  0
    0.0550   -3.0210   -3.1720 C   0  0  0  0  0  0  0  0  0  0  0  0
   -1.1280    0.2950   -0.3450 N   0  0  0  0  0  0  0  0  0  0  0  0
   -2.1660   -3.9700   -1.8110 S   0  0  0  0  0  0  0  0  0  0  0  0
   -1.6600   -0.2570    0.8260 O   0  0  0  0  0  0  0  0  0  0  0  0
    1.3920   -2.6970   -3.1510 N   0  0  0  0  0  0  0  0  0  0  0  0
   -2.0410   -4.4220   -0.1690 C   0  0  0  0  0  0  0  0  0  0  0  0
    0.1200   -3.7380   -0.6780 C   0  0  0  0  0  0  0  0  0  0  0  0
   -0.7660   -4.2490    0.3150 C   0  0  0  0  0  0  0  0  0  0  0  0
    1.6720   -0.3980   -2.0110 N   0  3  2  0  0  0  0  0  0  0  0  0
    1.1810    0.6890   -1.1250 C   0  0  0  0  0  0  0  0  0  0  0  0
   -0.6670   -2.9080   -4.1660 O   0  0  0  0  0  0  0  0  0  0  0  0
   -0.8830   -1.1870    2.8480 C   0  0  0  0  0  0  0  0  0  0  0  0
    2.2970   -2.8150   -1.9870 C   0  0  0  0  0  0  0  0  0  0  0  0
   -3.4620   -5.0330    0.6980 S   0  0  0  0  0  0  0  0  0  0  0  0
    2.5350   -1.4260   -1.3110 C   0  0  0  0  0  0  0  0  0  0  0  0
    2.9720   -0.9750   -4.1220 C   0  0  0  0  0  0  0  0  0  0  0  0
    2.0540   -2.1790   -4.3550 C   0  0  0  0  0  0  0  0  0  0  0  0
    2.3810    0.1200   -3.2430 C   0  0  0  0  0  0  0  0  0  0  0  0
   -2.1960   -1.4060    3.2780 C   0  0  0  0  0  0  0  0  0  0  0  0
    0.1830   -1.5570    3.6780 C   0  0  0  0  0  0  0  0  0  0  0  0
   -2.9910   -4.8440    2.4300 C   0  0  0  0  0  0  0  0  0  0  0  0
   -2.4400   -1.9900    4.5240 C   0  0  0  0  0  0  0  0  0  0  0  0
   -0.0630   -2.1410    4.9230 C   0  0  0  0  0  0  0  0  0  0  0  0
   -1.3750   -2.3560    5.3460 C   0  0  0  0  0  0  0  0  0  0  0  0
    1.1660   -3.5280   -0.5120 H   0  0  0  0  0  0  0  0  0  0  0  0
   -0.4700   -4.4740    1.3290 H   0  0  0  0  0  0  0  0  0  0  0  0
    0.8270   -0.8690   -2.3020 H   0  0  0  0  0  0  0  0  0  0  0  0
    2.0320    1.1150   -0.5930 H   0  0  0  0  0  0  0  0  0  0  0  0
    0.7170    1.4580   -1.7430 H   0  0  0  0  0  0  0  0  0  0  0  0
    3.2540   -3.2170   -2.3200 H   0  0  0  0  0  0  0  0  0  0  0  0
    1.8520   -3.4930   -1.2590 H   0  0  0  0  0  0  0  0  0  0  0  0
    2.2630   -1.4780   -0.2570 H   0  0  0  0  0  0  0  0  0  0  0  0
    3.5850   -1.1480   -1.4020 H   0  0  0  0  0  0  0  0  0  0  0  0
    3.2110   -0.5390   -5.0920 H   0  0  0  0  0  0  0  0  0  0  0  0
    3.8860   -1.3330   -3.6490 H   0  0  0  0  0  0  0  0  0  0  0  0
    1.2820   -1.8830   -5.0650 H   0  0  0  0  0  0  0  0  0  0  0  0
    2.6530   -2.9830   -4.7840 H   0  0  0  0  0  0  0  0  0  0  0  0
    3.1900    0.7770   -2.9230 H   0  0  0  0  0  0  0  0  0  0  0  0
    1.6650    0.6880   -3.8370 H   0  0  0  0  0  0  0  0  0  0  0  0
   -3.0240   -1.1230    2.6450 H   0  0  0  0  0  0  0  0  0  0  0  0
    1.2000   -1.3900    3.3540 H   0  0  0  0  0  0  0  0  0  0  0  0
   -3.8030   -5.1940    3.0680 H   0  0  0  0  0  0  0  0  0  0  0  0
   -2.7920   -3.7930    2.6400 H   0  0  0  0  0  0  0  0  0  0  0  0
   -2.0940   -5.4310    2.6290 H   0  0  0  0  0  0  0  0  0  0  0  0
   -3.4560   -2.1580    4.8510 H   0  0  0  0  0  0  0  0  0  0  0  0
    0.7630   -2.4260    5.5580 H   0  0  0  0  0  0  0  0  0  0  0  0
   -1.5650   -2.8060    6.3090 H   0  0  0  0  0  0  0  0  0  0  0  0
  1  3  1  0  0  0  0
  1  4  2  0  0  0  0
  2  5  1  0  0  0  0
  2  7  1  0  0  0  0
  2 11  2  0  0  0  0
  3  6  2  0  0  0  0
  3 14  1  0  0  0  0
  4  8  1  0  0  0  0
  4 16  1  0  0  0  0
  5  9  1  0  0  0  0
  5 15  2  0  0  0  0
  6  8  1  0  0  0  0
  7 10  1  0  0  0  0
  9 17  1  0  0  0  0
  9 21  1  0  0  0  0
 10 12  2  0  0  0  0
 10 18  1  0  0  0  0
 11 12  1  0  0  0  0
 11 29  1  0  0  0  0
 12 30  1  0  0  0  0
 13 14  1  0  0  0  0
 13 19  1  0  0  0  0
 13 22  1  0  0  0  0
 13 31  1  6  0  0  0
 14 32  1  0  0  0  0
 14 33  1  0  0  0  0
 16 23  2  0  0  0  0
 16 24  1  0  0  0  0
 17 19  1  0  0  0  0
 17 34  1  0  0  0  0
 17 35  1  0  0  0  0
 18 25  1  0  0  0  0
 19 36  1  0  0  0  0
 19 37  1  0  0  0  0
 20 21  1  0  0  0  0
 20 22  1  0  0  0  0
 20 38  1  0  0  0  0
 20 39  1  0  0  0  0
 21 40  1  0  0  0  0
 21 41  1  0  0  0  0
 22 42  1  0  0  0  0
 22 43  1  0  0  0  0
 23 26  1  0  0  0  0
 23 44  1  0  0  0  0
 24 27  2  0  0  0  0
 24 45  1  0  0  0  0
 25 46  1  0  0  0  0
 25 47  1  0  0  0  0
 25 48  1  0  0  0  0
 26 28  2  0  0  0  0
 26 49  1  0  0  0  0
 27 28  1  0  0  0  0
 27 50  1  0  0  0  0
 28 51  1  0  0  0  0
M  CHG  1  13   1
M  END
>  <$CLUSTER>
675

>  <INDEX>
443512

$$$$
InterBioScreen STOCK5S-48304
 OpenBabel04062209303D

 56 60  0  0  0  0  0  0  0  0999 V2000
    1.3760   -1.3270    1.5410 C   0  0  0  0  0  0  0  0  0  0  0  0
    0.6720   -2.0680    0.6830 C   0  0  0  0  0  0  0  0  0  0  0  0
    0.8540   -3.5360    0.7160 N   0  0  0  0  0  0  0  0  0  0  0  0
    2.3280   -1.9460    2.5140 C   0  0  0  0  0  0  0  0  0  0  0  0
    2.4170   -3.3170    2.4540 N   0  0  0  0  0  0  0  0  0  0  0  0
    1.6810   -4.0410    1.5640 C   0  0  0  0  0  0  0  0  0  0  0  0
    1.1890    0.1350    1.5020 C   0  0  0  0  0  0  0  0  0  0  0  0
   -0.2290   -1.5980   -0.2520 N   0  0  0  0  0  0  0  0  0  0  0  0
    0.2310    0.6780    0.5130 C   0  0  0  0  0  0  0  0  0  0  0  0
   -0.4610   -0.2050   -0.3480 C   0  0  0  0  0  0  0  0  0  0  0  0
    3.3630   -3.9670    3.3940 C   0  0  0  0  0  0  0  0  0  0  0  0
    1.7680   -5.5080    1.5060 C   0  0  0  0  0  0  0  0  0  0  0  0
    2.9780   -1.2680    3.3040 O   0  0  0  0  0  0  0  0  0  0  0  0
    1.8090    0.8640    2.2660 O   0  0  0  0  0  0  0  0  0  0  0  0
    2.6600   -6.1080    0.6170 C   0  0  0  0  0  0  0  0  0  0  0  0
    0.9530   -6.2770    2.3380 C   0  0  0  0  0  0  0  0  0  0  0  0
   -0.9520   -2.4970   -1.1480 C   0  0  0  0  0  0  0  0  0  0  0  0
    4.7830   -3.9930    2.8450 C   0  0  0  0  0  0  0  0  0  0  0  0
    1.9610   -8.2770    1.4280 C   0  0  0  0  0  0  0  0  0  0  0  0
    0.0350    2.0630    0.4550 C   0  0  0  0  0  0  0  0  0  0  0  0
    2.7590   -7.4990    0.5850 C   0  0  0  0  0  0  0  0  0  0  0  0
    1.0570   -7.6680    2.3010 C   0  0  0  0  0  0  0  0  0  0  0  0
   -1.3580    0.3680   -1.2670 C   0  0  0  0  0  0  0  0  0  0  0  0
    5.7380   -4.6640    3.7970 C   0  0  0  0  0  0  0  0  0  0  0  0
    2.1470   -9.6400    1.2960 O   0  0  0  0  0  0  0  0  0  0  0  0
    5.9590   -6.0480    3.7310 C   0  0  0  0  0  0  0  0  0  0  0  0
    6.4050   -3.9210    4.7820 C   0  0  0  0  0  0  0  0  0  0  0  0
    1.3560  -10.4820    2.1270 C   0  0  0  0  0  0  0  0  0  0  0  0
   -0.8600    2.5970   -0.4670 C   0  0  0  0  0  0  0  0  0  0  0  0
   -1.5550    1.7510   -1.3260 C   0  0  0  0  0  0  0  0  0  0  0  0
    7.2790   -4.5460    5.6730 C   0  0  0  0  0  0  0  0  0  0  0  0
    6.8330   -6.6710    4.6230 C   0  0  0  0  0  0  0  0  0  0  0  0
    7.4930   -5.9190    5.5920 C   0  0  0  0  0  0  0  0  0  0  0  0
    3.0350   -4.9910    3.5710 H   0  0  0  0  0  0  0  0  0  0  0  0
    3.3590   -3.4160    4.3350 H   0  0  0  0  0  0  0  0  0  0  0  0
    3.2670   -5.5020   -0.0390 H   0  0  0  0  0  0  0  0  0  0  0  0
    0.2490   -5.8000    3.0040 H   0  0  0  0  0  0  0  0  0  0  0  0
   -0.6590   -3.5270   -0.9440 H   0  0  0  0  0  0  0  0  0  0  0  0
   -0.7120   -2.2490   -2.1820 H   0  0  0  0  0  0  0  0  0  0  0  0
   -2.0240   -2.3860   -0.9870 H   0  0  0  0  0  0  0  0  0  0  0  0
    5.1150   -2.9690    2.6760 H   0  0  0  0  0  0  0  0  0  0  0  0
    4.7860   -4.5370    1.9000 H   0  0  0  0  0  0  0  0  0  0  0  0
    0.5770    2.7150    1.1240 H   0  0  0  0  0  0  0  0  0  0  0  0
    3.4530   -7.9750   -0.0920 H   0  0  0  0  0  0  0  0  0  0  0  0
    0.4390   -8.2730    2.9470 H   0  0  0  0  0  0  0  0  0  0  0  0
   -1.9060   -0.2730   -1.9410 H   0  0  0  0  0  0  0  0  0  0  0  0
    5.4480   -6.6360    2.9830 H   0  0  0  0  0  0  0  0  0  0  0  0
    6.2410   -2.8560    4.8520 H   0  0  0  0  0  0  0  0  0  0  0  0
    1.5990  -11.5250    1.9240 H   0  0  0  0  0  0  0  0  0  0  0  0
    0.3000  -10.3080    1.9200 H   0  0  0  0  0  0  0  0  0  0  0  0
    1.5630  -10.2580    3.1730 H   0  0  0  0  0  0  0  0  0  0  0  0
   -1.0150    3.6650   -0.5160 H   0  0  0  0  0  0  0  0  0  0  0  0
   -2.2500    2.1650   -2.0420 H   0  0  0  0  0  0  0  0  0  0  0  0
    7.7900   -3.9640    6.4260 H   0  0  0  0  0  0  0  0  0  0  0  0
    6.9980   -7.7370    4.5620 H   0  0  0  0  0  0  0  0  0  0  0  0
    8.1710   -6.4010    6.2810 H   0  0  0  0  0  0  0  0  0  0  0  0
  1  2  2  0  0  0  0
  1  4  1  0  0  0  0
  1  7  1  0  0  0  0
  2  3  1  0  0  0  0
  2  8  1  0  0  0  0
  3  6  2  0  0  0  0
  4  5  1  0  0  0  0
  4 13  2  0  0  0  0
  5  6  1  0  0  0  0
  5 11  1  0  0  0  0
  6 12  1  0  0  0  0
  7  9  1  0  0  0  0
  7 14  2  0  0  0  0
  8 10  1  0  0  0  0
  8 17  1  0  0  0  0
  9 10  2  0  0  0  0
  9 20  1  0  0  0  0
 10 23  1  0  0  0  0
 11 18  1  0  0  0  0
 11 34  1  0  0  0  0
 11 35  1  0  0  0  0
 12 15  2  0  0  0  0
 12 16  1  0  0  0  0
 15 21  1  0  0  0  0
 15 36  1  0  0  0  0
 16 22  2  0  0  0  0
 16 37  1  0  0  0  0
 17 38  1  0  0  0  0
 17 39  1  0  0  0  0
 17 40  1  0  0  0  0
 18 24  1  0  0  0  0
 18 41  1  0  0  0  0
 18 42  1  0  0  0  0
 19 21  2  0  0  0  0
 19 22  1  0  0  0  0
 19 25  1  0  0  0  0
 20 29  2  0  0  0  0
 20 43  1  0  0  0  0
 21 44  1  0  0  0  0
 22 45  1  0  0  0  0
 23 30  2  0  0  0  0
 23 46  1  0  0  0  0
 24 26  1  0  0  0  0
 24 27  2  0  0  0  0
 25 28  1  0  0  0  0
 26 32  2  0  0  0  0
 26 47  1  0  0  0  0
 27 31  1  0  0  0  0
 27 48  1  0  0  0  0
 28 49  1  0  0  0  0
 28 50  1  0  0  0  0
 28 51  1  0  0  0  0
 29 30  1  0  0  0  0
 29 52  1  0  0  0  0
 30 53  1  0  0  0  0
 31 33  2  0  0  0  0
 31 54  1  0  0  0  0
 32 33  1  0  0  0  0
 32 55  1  0  0  0  0
 33 56  1  0  0  0  0
M  END
>  <$CLUSTER>
574

>  <INDEX>
377513

$$$$
Chem T&I PMOS-0027433
 OpenBabel04062209303D

 53 57  0  0  0  0  0  0  0  0999 V2000
    4.7100    5.2160   -4.1210 N   0  0  0  0  0  0  0  0  0  0  0  0
    4.3450    4.9590   -2.8620 N   0  0  0  0  0  0  0  0  0  0  0  0
    4.3260    4.3880   -5.0960 N   0  0  0  0  0  0  0  0  0  0  0  0
    0.6460    0.0230    0.3080 C   0  0  0  0  0  0  0  0  0  0  0  0
    3.6440    3.8350   -3.0450 C   0  0  0  0  0  0  0  0  0  0  0  0
    3.6350    3.4930   -4.3960 C   0  0  0  0  0  0  0  0  0  0  0  0
    1.5020   -2.7060    2.6730 N   0  3  0  0  0  0  0  0  0  0  0  0
    1.4330    1.1220   -0.2760 C   0  0  0  0  0  0  0  0  0  0  0  0
   -0.6820   -0.2630   -0.0730 C   0  0  0  0  0  0  0  0  0  0  0  0
    2.9790    3.0360   -2.1090 C   0  0  0  0  0  0  0  0  0  0  0  0
    1.3490   -0.7850    1.2180 C   0  0  0  0  0  0  0  0  0  0  0  0
    2.2970    1.8860   -2.5190 C   0  0  0  0  0  0  0  0  0  0  0  0
    0.7520   -1.9220    1.7480 C   0  0  0  0  0  0  0  0  0  0  0  0
   -1.4530    0.5450   -0.9010 N   0  0  0  0  0  0  0  0  0  0  0  0
    1.6130    1.0400   -1.6370 N   0  0  0  0  0  0  0  0  0  0  0  0
    2.9600    2.3510   -4.8140 C   0  0  0  0  0  0  0  0  0  0  0  0
    2.2950    1.5520   -3.8820 C   0  0  0  0  0  0  0  0  0  0  0  0
   -1.2390   -1.4410    0.4710 C   0  0  0  0  0  0  0  0  0  0  0  0
    0.9150   -3.7060    3.1090 O   0  5  0  0  0  0  0  0  0  0  0  0
    5.5190    6.3880   -4.4240 C   0  0  0  0  0  0  0  0  0  0  0  0
    2.6540   -2.3810    2.9940 O   0  0  0  0  0  0  0  0  0  0  0  0
    1.9050    1.9940    0.4450 O   0  0  0  0  0  0  0  0  0  0  0  0
   -0.5400   -2.2570    1.3670 C   0  0  0  0  0  0  0  0  0  0  0  0
   -3.7570    1.9780   -1.5780 O   0  0  0  0  0  0  0  0  0  0  0  0
   -1.4060    1.9970   -0.8170 C   0  0  0  0  0  0  0  0  0  0  0  0
   -2.3780   -0.0540   -1.8520 C   0  0  0  0  0  0  0  0  0  0  0  0
   -3.7720    0.5490   -1.5670 C   0  0  0  0  0  0  0  0  0  0  0  0
   -2.8550    2.4840   -0.5910 C   0  0  0  0  0  0  0  0  0  0  0  0
    5.9170    7.2520   -3.3960 C   0  0  0  0  0  0  0  0  0  0  0  0
    5.9000    6.6550   -5.7460 C   0  0  0  0  0  0  0  0  0  0  0  0
    6.6760    7.7810   -6.0320 C   0  0  0  0  0  0  0  0  0  0  0  0
    6.6930    8.3750   -3.6920 C   0  0  0  0  0  0  0  0  0  0  0  0
    7.0720    8.6400   -5.0070 C   0  0  0  0  0  0  0  0  0  0  0  0
    2.9920    3.3090   -1.0640 H   0  0  0  0  0  0  0  0  0  0  0  0
    2.3560   -0.5210    1.5060 H   0  0  0  0  0  0  0  0  0  0  0  0
    1.1810    0.2380   -2.0720 H   0  0  0  0  0  0  0  0  0  0  0  0
    2.9500    2.0820   -5.8600 H   0  0  0  0  0  0  0  0  0  0  0  0
    1.7730    0.6670   -4.2140 H   0  0  0  0  0  0  0  0  0  0  0  0
   -2.2420   -1.7220    0.1850 H   0  0  0  0  0  0  0  0  0  0  0  0
   -1.0060   -3.1480    1.7620 H   0  0  0  0  0  0  0  0  0  0  0  0
   -1.0120    2.4130   -1.7440 H   0  0  0  0  0  0  0  0  0  0  0  0
   -0.7740    2.3030    0.0160 H   0  0  0  0  0  0  0  0  0  0  0  0
   -2.4040   -1.1360   -1.7190 H   0  0  0  0  0  0  0  0  0  0  0  0
   -2.0700    0.1790   -2.8710 H   0  0  0  0  0  0  0  0  0  0  0  0
   -4.4680    0.2000   -2.3300 H   0  0  0  0  0  0  0  0  0  0  0  0
   -4.1070    0.2090   -0.5870 H   0  0  0  0  0  0  0  0  0  0  0  0
   -3.1880    2.1500    0.3920 H   0  0  0  0  0  0  0  0  0  0  0  0
   -2.8690    3.5730   -0.6290 H   0  0  0  0  0  0  0  0  0  0  0  0
    5.6240    7.0500   -2.3760 H   0  0  0  0  0  0  0  0  0  0  0  0
    5.5940    5.9920   -6.5420 H   0  0  0  0  0  0  0  0  0  0  0  0
    6.9700    7.9870   -7.0500 H   0  0  0  0  0  0  0  0  0  0  0  0
    7.0010    9.0410   -2.8990 H   0  0  0  0  0  0  0  0  0  0  0  0
    7.6720    9.5100   -5.2320 H   0  0  0  0  0  0  0  0  0  0  0  0
  1  2  1  0  0  0  0
  1  3  1  0  0  0  0
  1 20  1  0  0  0  0
  2  5  2  0  0  0  0
  3  6  2  0  0  0  0
  4  8  1  0  0  0  0
  4  9  1  0  0  0  0
  4 11  2  0  0  0  0
  5  6  1  0  0  0  0
  5 10  1  0  0  0  0
  6 16  1  0  0  0  0
  7 13  1  0  0  0  0
  7 19  1  0  0  0  0
  7 21  2  0  0  0  0
  8 15  1  0  0  0  0
  8 22  2  0  0  0  0
  9 14  1  0  0  0  0
  9 18  2  0  0  0  0
 10 12  2  0  0  0  0
 10 34  1  0  0  0  0
 11 13  1  0  0  0  0
 11 35  1  0  0  0  0
 12 15  1  0  0  0  0
 12 17  1  0  0  0  0
 13 23  2  0  0  0  0
 14 25  1  0  0  0  0
 14 26  1  0  0  0  0
 15 36  1  0  0  0  0
 16 17  2  0  0  0  0
 16 37  1  0  0  0  0
 17 38  1  0  0  0  0
 18 23  1  0  0  0  0
 18 39  1  0  0  0  0
 20 29  1  0  0  0  0
 20 30  2  0  0  0  0
 23 40  1  0  0  0  0
 24 27  1  0  0  0  0
 24 28  1  0  0  0  0
 25 28  1  0  0  0  0
 25 41  1  0  0  0  0
 25 42  1  0  0  0  0
 26 27  1  0  0  0  0
 26 43  1  0  0  0  0
 26 44  1  0  0  0  0
 27 45  1  0  0  0  0
 27 46  1  0  0  0  0
 28 47  1  0  0  0  0
 28 48  1  0  0  0  0
 29 32  2  0  0  0  0
 29 49  1  0  0  0  0
 30 31  1  0  0  0  0
 30 50  1  0  0  0  0
 31 33  2  0  0  0  0
 31 51  1  0  0  0  0
 32 33  1  0  0  0  0
 32 52  1  0  0  0  0
 33 53  1  0  0  0  0
M  CHG  2   7   1  19  -1
M  END
>  <$CLUSTER>
932

>  <INDEX>
610791

$$$$
Lithuania 1067744
 OpenBabel04062209303D

 47 50  0  0  1  0  0  0  0  0999 V2000
    0.4350    0.9370   -0.2510 N   0  0  0  0  0  0  0  0  0  0  0  0
    1.1720    1.3730    0.8710 C   0  0  0  0  0  0  0  0  0  0  0  0
    0.5700   -0.4550   -0.7430 C   0  0  1  0  0  0  0  0  0  0  0  0
    1.9180   -0.9650   -0.5710 N   0  0  0  0  0  0  0  0  0  0  0  0
    2.3330    0.5400    1.2730 C   0  0  0  0  0  0  0  0  0  0  0  0
    2.6950   -0.5590    0.4920 C   0  0  0  0  0  0  0  0  0  0  0  0
   -0.4120   -1.4480   -0.1340 C   0  0  0  0  0  0  0  0  0  0  0  0
   -0.5010    1.8210   -0.9210 C   0  0  0  0  0  0  0  0  0  0  0  0
   -0.8230   -2.5520   -0.9020 C   0  0  0  0  0  0  0  0  0  0  0  0
    0.9370    2.3730    1.5430 O   0  0  0  0  0  0  0  0  0  0  0  0
   -1.7060   -3.5000   -0.3830 C   0  0  0  0  0  0  0  0  0  0  0  0
   -2.1870   -3.3640    0.9170 C   0  0  0  0  0  0  0  0  0  0  0  0
   -0.8980   -1.3340    1.1780 C   0  0  0  0  0  0  0  0  0  0  0  0
   -1.7820   -2.2840    1.6960 C   0  0  0  0  0  0  0  0  0  0  0  0
   -1.5470    1.3220   -1.7180 C   0  0  0  0  0  0  0  0  0  0  0  0
   -0.3800    3.2190   -0.8290 C   0  0  0  0  0  0  0  0  0  0  0  0
   -2.3120    3.5550   -2.2460 C   0  0  0  0  0  0  0  0  0  0  0  0
    3.0990    0.9070    2.3880 C   0  0  0  0  0  0  0  0  0  0  0  0
   -2.1550   -4.6000   -1.0850 O   0  0  0  0  0  0  0  0  0  0  0  0
   -1.2770    4.0750   -1.4800 C   0  0  0  0  0  0  0  0  0  0  0  0
   -2.4450    2.1770   -2.3670 C   0  0  0  0  0  0  0  0  0  0  0  0
   -3.1250    4.4360   -2.8250 F   0  0  0  0  0  0  0  0  0  0  0  0
   -3.0490   -4.3470    1.3470 O   0  0  0  0  0  0  0  0  0  0  0  0
    3.8420   -1.2840    0.8450 C   0  0  0  0  0  0  0  0  0  0  0  0
   -1.6860   -4.7680   -2.4180 C   0  0  0  0  0  0  0  0  0  0  0  0
   -3.5580   -4.2410    2.6710 C   0  0  0  0  0  0  0  0  0  0  0  0
    4.2330    0.1720    2.7280 C   0  0  0  0  0  0  0  0  0  0  0  0
    4.6070   -0.9220    1.9550 C   0  0  0  0  0  0  0  0  0  0  0  0
    0.3290   -0.3750   -1.8030 H   0  0  0  0  0  0  0  0  0  0  0  0
    2.2910   -1.6250   -1.2380 H   0  0  0  0  0  0  0  0  0  0  0  0
   -0.4500   -2.6680   -1.9090 H   0  0  0  0  0  0  0  0  0  0  0  0
   -0.5850   -0.5030    1.7930 H   0  0  0  0  0  0  0  0  0  0  0  0
   -2.1530   -2.1800    2.7050 H   0  0  0  0  0  0  0  0  0  0  0  0
   -1.6600    0.2540   -1.8320 H   0  0  0  0  0  0  0  0  0  0  0  0
    0.4230    3.6420   -0.2430 H   0  0  0  0  0  0  0  0  0  0  0  0
    2.8100    1.7600    2.9840 H   0  0  0  0  0  0  0  0  0  0  0  0
   -1.1630    5.1450   -1.3860 H   0  0  0  0  0  0  0  0  0  0  0  0
   -3.2450    1.7640   -2.9640 H   0  0  0  0  0  0  0  0  0  0  0  0
    4.1380   -2.1350    0.2490 H   0  0  0  0  0  0  0  0  0  0  0  0
   -2.1210   -5.6720   -2.8450 H   0  0  0  0  0  0  0  0  0  0  0  0
   -0.5990   -4.8550   -2.4130 H   0  0  0  0  0  0  0  0  0  0  0  0
   -1.9790   -3.9060   -3.0170 H   0  0  0  0  0  0  0  0  0  0  0  0
   -4.2220   -5.0810    2.8730 H   0  0  0  0  0  0  0  0  0  0  0  0
   -4.1110   -3.3080    2.7740 H   0  0  0  0  0  0  0  0  0  0  0  0
   -2.7310   -4.2530    3.3800 H   0  0  0  0  0  0  0  0  0  0  0  0
    4.8200    0.4510    3.5900 H   0  0  0  0  0  0  0  0  0  0  0  0
    5.4880   -1.4910    2.2130 H   0  0  0  0  0  0  0  0  0  0  0  0
  1  2  1  0  0  0  0
  1  3  1  0  0  0  0
  1  8  1  0  0  0  0
  2  5  1  0  0  0  0
  2 10  2  0  0  0  0
  3  4  1  0  0  0  0
  3  7  1  0  0  0  0
  3 29  1  6  0  0  0
  4  6  1  0  0  0  0
  4 30  1  0  0  0  0
  5  6  2  0  0  0  0
  5 18  1  0  0  0  0
  6 24  1  0  0  0  0
  7  9  1  0  0  0  0
  7 13  2  0  0  0  0
  8 15  1  0  0  0  0
  8 16  2  0  0  0  0
  9 11  2  0  0  0  0
  9 31  1  0  0  0  0
 11 12  1  0  0  0  0
 11 19  1  0  0  0  0
 12 14  2  0  0  0  0
 12 23  1  0  0  0  0
 13 14  1  0  0  0  0
 13 32  1  0  0  0  0
 14 33  1  0  0  0  0
 15 21  2  0  0  0  0
 15 34  1  0  0  0  0
 16 20  1  0  0  0  0
 16 35  1  0  0  0  0
 17 20  2  0  0  0  0
 17 21  1  0  0  0  0
 17 22  1  0  0  0  0
 18 27  2  0  0  0  0
 18 36  1  0  0  0  0
 19 25  1  0  0  0  0
 20 37  1  0  0  0  0
 21 38  1  0  0  0  0
 23 26  1  0  0  0  0
 24 28  2  0  0  0  0
 24 39  1  0  0  0  0
 25 40  1  0  0  0  0
 25 41  1  0  0  0  0
 25 42  1  0  0  0  0
 26 43  1  0  0  0  0
 26 44  1  0  0  0  0
 26 45  1  0  0  0  0
 27 28  1  0  0  0  0
 27 46  1  0  0  0  0
 28 47  1  0  0  0  0
M  END
>  <$CLUSTER>
336

>  <INDEX>
222901

$$$$
Maybridge HTS 06299
 OpenBabel04062209303D

 35 37  0  0  0  0  0  0  0  0999 V2000
   -1.8690    0.9210    0.3550 S   0  0  0  0  0  0  0  0  0  0  0  0
   -0.9390    0.3480   -0.9270 N   0  0  0  0  0  0  0  0  0  0  0  0
    1.5050    5.3840    2.6790 C   0  0  0  0  0  0  0  0  0  0  0  0
    1.3630    0.4890   -0.7780 N   0  0  0  0  0  0  0  0  0  0  0  0
    0.2730   -0.2860   -0.5900 C   0  0  0  0  0  0  0  0  0  0  0  0
   -0.8610    2.2530    1.0070 C   0  0  0  0  0  0  0  0  0  0  0  0
   -1.9950   -0.1170    1.3660 O   0  0  0  0  0  0  0  0  0  0  0  0
   -3.0730    1.5040   -0.2190 O   0  0  0  0  0  0  0  0  0  0  0  0
    0.6610    4.2990    2.0800 C   0  0  0  0  0  0  0  0  0  0  0  0
    2.5550   -0.0680   -0.4480 C   0  0  0  0  0  0  0  0  0  0  0  0
    0.0530    1.9590    2.0170 C   0  0  0  0  0  0  0  0  0  0  0  0
   -1.0400    3.5430    0.5360 C   0  0  0  0  0  0  0  0  0  0  0  0
   -0.2690    4.5730    1.0740 C   0  0  0  0  0  0  0  0  0  0  0  0
    0.8220    2.9950    2.5500 C   0  0  0  0  0  0  0  0  0  0  0  0
    2.8290    5.1180    2.5080 F   0  0  0  0  0  0  0  0  0  0  0  0
    1.2950    5.4740    4.0210 F   0  0  0  0  0  0  0  0  0  0  0  0
    1.2920    6.6300    2.1720 F   0  0  0  0  0  0  0  0  0  0  0  0
    2.6950   -1.3520    0.0640 C   0  0  0  0  0  0  0  0  0  0  0  0
    1.5460   -2.1170    0.2510 C   0  0  0  0  0  0  0  0  0  0  0  0
    0.3060   -1.5750   -0.0810 C   0  0  0  0  0  0  0  0  0  0  0  0
    3.7300    0.7040   -0.6320 C   0  0  0  0  0  0  0  0  0  0  0  0
    3.9670   -1.8710    0.3930 C   0  0  0  0  0  0  0  0  0  0  0  0
    4.9900    0.1940   -0.3100 C   0  0  0  0  0  0  0  0  0  0  0  0
    5.1090   -1.0940    0.2020 C   0  0  0  0  0  0  0  0  0  0  0  0
   -1.2350    0.4530   -1.8870 H   0  0  0  0  0  0  0  0  0  0  0  0
    0.1640    0.9480    2.3810 H   0  0  0  0  0  0  0  0  0  0  0  0
   -1.7660    3.7480   -0.2370 H   0  0  0  0  0  0  0  0  0  0  0  0
   -0.3910    5.5830    0.7130 H   0  0  0  0  0  0  0  0  0  0  0  0
    1.5430    2.7870    3.3270 H   0  0  0  0  0  0  0  0  0  0  0  0
    1.6150   -3.1190    0.6490 H   0  0  0  0  0  0  0  0  0  0  0  0
   -0.6030   -2.1430    0.0540 H   0  0  0  0  0  0  0  0  0  0  0  0
    3.6490    1.7050   -1.0290 H   0  0  0  0  0  0  0  0  0  0  0  0
    4.0550   -2.8700    0.7930 H   0  0  0  0  0  0  0  0  0  0  0  0
    5.8720    0.8000   -0.4590 H   0  0  0  0  0  0  0  0  0  0  0  0
    6.0820   -1.4910    0.4510 H   0  0  0  0  0  0  0  0  0  0  0  0
  1  2  1  0  0  0  0
  1  6  1  0  0  0  0
  1  7  2  0  0  0  0
  1  8  2  0  0  0  0
  2  5  1  0  0  0  0
  2 25  1  0  0  0  0
  3  9  1  0  0  0  0
  3 15  1  0  0  0  0
  3 16  1  0  0  0  0
  3 17  1  0  0  0  0
  4  5  1  0  0  0  0
  4 10  2  0  0  0  0
  5 20  2  0  0  0  0
  6 11  1  0  0  0  0
  6 12  2  0  0  0  0
  9 13  2  0  0  0  0
  9 14  1  0  0  0  0
 10 18  1  0  0  0  0
 10 21  1  0  0  0  0
 11 14  2  0  0  0  0
 11 26  1  0  0  0  0
 12 13  1  0  0  0  0
 12 27  1  0  0  0  0
 13 28  1  0  0  0  0
 14 29  1  0  0  0  0
 18 19  2  0  0  0  0
 18 22  1  0  0  0  0
 19 20  1  0  0  0  0
 19 30  1  0  0  0  0
 20 31  1  0  0  0  0
 21 23  2  0  0  0  0
 21 32  1  0  0  0  0
 22 24  2  0  0  0  0
 22 33  1  0  0  0  0
 23 24  1  0  0  0  0
 23 34  1  0  0  0  0
 24 35  1  0  0  0  0
M  END
>  <$CLUSTER>
861

>  <INDEX>
551739

$$$$
InterBioScreen STOCK5S-05837
 OpenBabel04062209303D

 56 59  0  0  1  0  0  0  0  0999 V2000
    0.5410    0.9200   -0.0680 C   0  0  0  0  0  0  0  0  0  0  0  0
    1.4550   -1.3520   -0.0900 C   0  0  0  0  0  0  0  0  0  0  0  0
   -0.7970    0.4040    0.0930 C   0  0  0  0  0  0  0  0  0  0  0  0
    1.5760    0.0950   -0.1480 C   0  0  0  0  0  0  0  0  0  0  0  0
   -0.9410   -0.9900    0.1470 C   0  0  0  0  0  0  0  0  0  0  0  0
    0.1700   -1.8490    0.0520 O   0  0  0  0  0  0  0  0  0  0  0  0
   -3.3230   -0.7700    0.4020 C   0  0  0  0  0  0  0  0  0  0  0  0
   -2.1940   -1.5810    0.3000 C   0  0  0  0  0  0  0  0  0  0  0  0
   -1.9330    1.2070    0.1990 C   0  0  0  0  0  0  0  0  0  0  0  0
   -4.6360   -3.2880   -0.7840 C   0  0  0  0  0  0  0  0  0  0  0  0
   -4.6310   -1.2670    0.5590 O   0  0  0  0  0  0  0  0  0  0  0  0
   -3.1930    0.6200    0.3520 C   0  0  0  0  0  0  0  0  0  0  0  0
    0.7110   -5.5300   -4.8050 C   0  0  0  0  0  0  0  0  0  0  0  0
   -4.5530   -4.6510   -0.7950 N   0  0  0  0  0  0  0  0  0  0  0  0
   -4.7770   -2.6910    0.6130 C   0  0  1  0  0  0  0  0  0  0  0  0
    2.4320   -2.0920   -0.1630 O   0  0  0  0  0  0  0  0  0  0  0  0
   -0.7480   -5.3590   -4.3890 C   0  0  1  0  0  0  0  0  0  0  0  0
   -4.5750   -2.5870   -1.7980 O   0  0  0  0  0  0  0  0  0  0  0  0
    1.2950   -6.5880   -4.5290 O   0  0  0  0  0  0  0  0  0  0  0  0
   -1.3820   -6.7160   -4.0590 C   0  0  0  0  0  0  0  0  0  0  0  0
   -0.8650   -4.3980   -3.1980 C   0  0  0  0  0  0  0  0  0  0  0  0
   -4.5610    1.6730    0.4750 Cl  0  0  0  0  0  0  0  0  0  0  0  0
    0.9480    2.3400   -0.1530 C   0  0  0  0  0  0  0  0  0  0  0  0
   -4.4100   -5.4540   -1.9840 C   0  0  0  0  0  0  0  0  0  0  0  0
    1.2000   -4.4610   -5.3510 O   0  5  0  0  0  0  0  0  0  0  0  0
    2.8600    0.8150   -0.2970 C   0  0  0  0  0  0  0  0  0  0  0  0
   -2.8270   -6.5550   -3.5910 C   0  0  0  0  0  0  0  0  0  0  0  0
   -2.2940   -4.2580   -2.7450 C   0  0  0  0  0  0  0  0  0  0  0  0
   -2.9540   -5.5960   -2.3830 C   0  0  1  0  0  0  0  0  0  0  0  0
    2.3990    2.2350   -0.6250 C   0  0  0  0  0  0  0  0  0  0  0  0
   -6.1220   -3.0080    1.2100 C   0  0  0  0  0  0  0  0  0  0  0  0
   -2.2890   -2.6560    0.3390 H   0  0  0  0  0  0  0  0  0  0  0  0
   -1.8390    2.2820    0.1630 H   0  0  0  0  0  0  0  0  0  0  0  0
   -4.5950   -5.1310    0.0930 H   0  0  0  0  0  0  0  0  0  0  0  0
   -3.9960   -3.1290    1.2350 H   0  0  0  0  0  0  0  0  0  0  0  0
   -1.2920   -4.9260   -5.2280 H   0  0  0  0  0  0  0  0  0  0  0  0
   -1.3660   -7.3420   -4.9510 H   0  0  0  0  0  0  0  0  0  0  0  0
   -0.8040   -7.1950   -3.2690 H   0  0  0  0  0  0  0  0  0  0  0  0
   -0.2670   -4.7820   -2.3720 H   0  0  0  0  0  0  0  0  0  0  0  0
   -0.4890   -3.4190   -3.4940 H   0  0  0  0  0  0  0  0  0  0  0  0
    0.3370    2.8830   -0.8740 H   0  0  0  0  0  0  0  0  0  0  0  0
    0.8830    2.8280    0.8190 H   0  0  0  0  0  0  0  0  0  0  0  0
   -4.8240   -6.4440   -1.7950 H   0  0  0  0  0  0  0  0  0  0  0  0
   -4.9570   -4.9810   -2.8000 H   0  0  0  0  0  0  0  0  0  0  0  0
    3.4360    0.7900    0.6280 H   0  0  0  0  0  0  0  0  0  0  0  0
    3.4560    0.3960   -1.1080 H   0  0  0  0  0  0  0  0  0  0  0  0
   -3.2120   -7.5330   -3.3030 H   0  0  0  0  0  0  0  0  0  0  0  0
   -3.4200   -6.1590   -4.4160 H   0  0  0  0  0  0  0  0  0  0  0  0
   -2.8670   -3.7960   -3.5490 H   0  0  0  0  0  0  0  0  0  0  0  0
   -2.3160   -3.6130   -1.8660 H   0  0  0  0  0  0  0  0  0  0  0  0
   -2.4350   -5.9960   -1.5120 H   0  0  0  0  0  0  0  0  0  0  0  0
    3.0190    2.9630   -0.1010 H   0  0  0  0  0  0  0  0  0  0  0  0
    2.4590    2.4120   -1.6990 H   0  0  0  0  0  0  0  0  0  0  0  0
   -6.9060   -2.5720    0.5910 H   0  0  0  0  0  0  0  0  0  0  0  0
   -6.1800   -2.5930    2.2160 H   0  0  0  0  0  0  0  0  0  0  0  0
   -6.2540   -4.0890    1.2550 H   0  0  0  0  0  0  0  0  0  0  0  0
  1  3  1  0  0  0  0
  1  4  2  0  0  0  0
  1 23  1  0  0  0  0
  2  4  1  0  0  0  0
  2  6  1  0  0  0  0
  2 16  2  0  0  0  0
  3  5  1  0  0  0  0
  3  9  2  0  0  0  0
  4 26  1  0  0  0  0
  5  6  1  0  0  0  0
  5  8  2  0  0  0  0
  7  8  1  0  0  0  0
  7 11  1  0  0  0  0
  7 12  2  0  0  0  0
  8 32  1  0  0  0  0
  9 12  1  0  0  0  0
  9 33  1  0  0  0  0
 10 14  1  0  0  0  0
 10 15  1  0  0  0  0
 10 18  2  0  0  0  0
 11 15  1  0  0  0  0
 12 22  1  0  0  0  0
 13 17  1  0  0  0  0
 13 19  2  0  0  0  0
 13 25  1  0  0  0  0
 14 24  1  0  0  0  0
 14 34  1  0  0  0  0
 15 31  1  0  0  0  0
 15 35  1  1  0  0  0
 17 20  1  0  0  0  0
 17 21  1  0  0  0  0
 17 36  1  6  0  0  0
 20 27  1  0  0  0  0
 20 37  1  0  0  0  0
 20 38  1  0  0  0  0
 21 28  1  0  0  0  0
 21 39  1  0  0  0  0
 21 40  1  0  0  0  0
 23 30  1  0  0  0  0
 23 41  1  0  0  0  0
 23 42  1  0  0  0  0
 24 29  1  0  0  0  0
 24 43  1  0  0  0  0
 24 44  1  0  0  0  0
 26 30  1  0  0  0  0
 26 45  1  0  0  0  0
 26 46  1  0  0  0  0
 27 29  1  0  0  0  0
 27 47  1  0  0  0  0
 27 48  1  0  0  0  0
 28 29  1  0  0  0  0
 28 49  1  0  0  0  0
 28 50  1  0  0  0  0
 29 51  1  1  0  0  0
 30 52  1  0  0  0  0
 30 53  1  0  0  0  0
 31 54  1  0  0  0  0
 31 55  1  0  0  0  0
 31 56  1  0  0  0  0
M  CHG  1  25  -1
M  END
>  <$CLUSTER>
556

>  <INDEX>
365065

$$$$
Life Chemicals F1608-0478
 OpenBabel04062209303D

 55 58  0  0  0  0  0  0  0  0999 V2000
   -0.8020   -0.1210   -0.7140 C   0  0  0  0  0  0  0  0  0  0  0  0
   -1.0380   -0.5420    0.6060 C   0  0  0  0  0  0  0  0  0  0  0  0
   -2.2900   -0.1900    1.1970 C   0  0  0  0  0  0  0  0  0  0  0  0
    0.4550   -0.3950   -1.4270 C   0  0  0  0  0  0  0  0  0  0  0  0
   -0.0990   -1.2940    1.3000 N   0  0  0  0  0  0  0  0  0  0  0  0
   -1.7620    0.5990   -1.4130 C   0  0  0  0  0  0  0  0  0  0  0  0
   -2.9150    0.9200   -0.8220 N   0  3  0  0  0  0  0  0  0  0  0  0
   -3.2210    0.5660    0.4390 C   0  0  0  0  0  0  0  0  0  0  0  0
    0.9220   -3.1380    3.2710 N   0  3  0  0  0  0  0  0  0  0  0  0
   -2.6960   -0.5700    2.4980 C   0  0  0  0  0  0  0  0  0  0  0  0
    0.4110   -1.1390   -2.4010 O   0  0  0  0  0  0  0  0  0  0  0  0
    0.2180   -2.6400    0.8590 C   0  0  0  0  0  0  0  0  0  0  0  0
    0.5900   -0.7340    2.4480 C   0  0  0  0  0  0  0  0  0  0  0  0
    1.7320    0.2170   -1.0000 C   0  0  0  0  0  0  0  0  0  0  0  0
   -4.4640    0.9400    0.9710 C   0  0  0  0  0  0  0  0  0  0  0  0
    0.5020   -1.7310    3.6590 C   0  0  0  0  0  0  0  0  0  0  0  0
    0.1300   -3.6320    2.0730 C   0  0  0  0  0  0  0  0  0  0  0  0
   -3.9370   -0.1960    3.0230 C   0  0  0  0  0  0  0  0  0  0  0  0
   -4.8180    0.5630    2.2620 C   0  0  0  0  0  0  0  0  0  0  0  0
   -4.1610   -0.6390    4.3110 O   0  0  0  0  0  0  0  0  0  0  0  0
    0.8550   -4.0880    4.4260 C   0  0  0  0  0  0  0  0  0  0  0  0
    1.7620    1.3800   -0.2260 C   0  0  0  0  0  0  0  0  0  0  0  0
    2.9300   -0.3810   -1.4050 C   0  0  0  0  0  0  0  0  0  0  0  0
   -5.4110   -0.2880    4.8930 C   0  0  0  0  0  0  0  0  0  0  0  0
    1.9280   -3.8070    5.4660 C   0  0  0  0  0  0  0  0  0  0  0  0
    2.9880    1.9320    0.1540 C   0  0  0  0  0  0  0  0  0  0  0  0
    4.1520    0.1750   -1.0220 C   0  0  0  0  0  0  0  0  0  0  0  0
    4.1810    1.3290   -0.2420 C   0  0  0  0  0  0  0  0  0  0  0  0
   -1.5760    0.8990   -2.4340 H   0  0  0  0  0  0  0  0  0  0  0  0
   -3.5910    1.4550   -1.3480 H   0  0  0  0  0  0  0  0  0  0  0  0
    1.8930   -3.0990    2.9970 H   0  0  0  0  0  0  0  0  0  0  0  0
   -2.0290   -1.1660    3.1030 H   0  0  0  0  0  0  0  0  0  0  0  0
    1.2280   -2.6580    0.4490 H   0  0  0  0  0  0  0  0  0  0  0  0
   -0.4920   -2.9450    0.0900 H   0  0  0  0  0  0  0  0  0  0  0  0
    0.1240    0.2120    2.7240 H   0  0  0  0  0  0  0  0  0  0  0  0
    1.6360   -0.5640    2.1950 H   0  0  0  0  0  0  0  0  0  0  0  0
   -5.1500    1.5240    0.3750 H   0  0  0  0  0  0  0  0  0  0  0  0
    1.1560   -1.3760    4.4550 H   0  0  0  0  0  0  0  0  0  0  0  0
   -0.5270   -1.7580    4.0190 H   0  0  0  0  0  0  0  0  0  0  0  0
   -0.9150   -3.7410    2.3630 H   0  0  0  0  0  0  0  0  0  0  0  0
    0.5250   -4.6000    1.7650 H   0  0  0  0  0  0  0  0  0  0  0  0
   -5.7730    0.8590    2.6710 H   0  0  0  0  0  0  0  0  0  0  0  0
    0.9860   -5.1040    4.0530 H   0  0  0  0  0  0  0  0  0  0  0  0
   -0.1230   -3.9980    4.8980 H   0  0  0  0  0  0  0  0  0  0  0  0
    0.8390    1.8510    0.0780 H   0  0  0  0  0  0  0  0  0  0  0  0
    2.9100   -1.2730   -2.0140 H   0  0  0  0  0  0  0  0  0  0  0  0
   -5.4680   -0.6930    5.9040 H   0  0  0  0  0  0  0  0  0  0  0  0
   -6.2210   -0.7000    4.2910 H   0  0  0  0  0  0  0  0  0  0  0  0
   -5.5020    0.7980    4.9310 H   0  0  0  0  0  0  0  0  0  0  0  0
    2.9120   -3.8940    5.0050 H   0  0  0  0  0  0  0  0  0  0  0  0
    1.8430   -4.5270    6.2800 H   0  0  0  0  0  0  0  0  0  0  0  0
    1.7990   -2.7980    5.8580 H   0  0  0  0  0  0  0  0  0  0  0  0
    3.0120    2.8280    0.7560 H   0  0  0  0  0  0  0  0  0  0  0  0
    5.0760   -0.2900   -1.3310 H   0  0  0  0  0  0  0  0  0  0  0  0
    5.1270    1.7560    0.0560 H   0  0  0  0  0  0  0  0  0  0  0  0
  1  2  2  0  0  0  0
  1  4  1  0  0  0  0
  1  6  1  0  0  0  0
  2  3  1  0  0  0  0
  2  5  1  0  0  0  0
  3  8  2  0  0  0  0
  3 10  1  0  0  0  0
  4 11  2  0  0  0  0
  4 14  1  0  0  0  0
  5 12  1  0  0  0  0
  5 13  1  0  0  0  0
  6  7  2  0  0  0  0
  6 29  1  0  0  0  0
  7  8  1  0  0  0  0
  7 30  1  0  0  0  0
  8 15  1  0  0  0  0
  9 16  1  0  0  0  0
  9 17  1  0  0  0  0
  9 21  1  0  0  0  0
  9 31  1  0  0  0  0
 10 18  2  0  0  0  0
 10 32  1  0  0  0  0
 12 17  1  0  0  0  0
 12 33  1  0  0  0  0
 12 34  1  0  0  0  0
 13 16  1  0  0  0  0
 13 35  1  0  0  0  0
 13 36  1  0  0  0  0
 14 22  2  0  0  0  0
 14 23  1  0  0  0  0
 15 19  2  0  0  0  0
 15 37  1  0  0  0  0
 16 38  1  0  0  0  0
 16 39  1  0  0  0  0
 17 40  1  0  0  0  0
 17 41  1  0  0  0  0
 18 19  1  0  0  0  0
 18 20  1  0  0  0  0
 19 42  1  0  0  0  0
 20 24  1  0  0  0  0
 21 25  1  0  0  0  0
 21 43  1  0  0  0  0
 21 44  1  0  0  0  0
 22 26  1  0  0  0  0
 22 45  1  0  0  0  0
 23 27  2  0  0  0  0
 23 46  1  0  0  0  0
 24 47  1  0  0  0  0
 24 48  1  0  0  0  0
 24 49  1  0  0  0  0
 25 50  1  0  0  0  0
 25 51  1  0  0  0  0
 25 52  1  0  0  0  0
 26 28  2  0  0  0  0
 26 53  1  0  0  0  0
 27 28  1  0  0  0  0
 27 54  1  0  0  0  0
 28 55  1  0  0  0  0
M  CHG  2   7   1   9   1
M  END
>  <$CLUSTER>
447

>  <INDEX>
295573

$$$$
Chemdiv 1416-0529
 OpenBabel04062209303D

 51 53  0  0  0  0  0  0  0  0999 V2000
   -1.7820   -1.0450   -2.9850 C   0  0  0  0  0  0  0  0  0  0  0  0
   -3.0120   -1.3240   -2.4360 C   0  0  0  0  0  0  0  0  0  0  0  0
   -1.4440   -1.5030   -4.2670 C   0  0  0  0  0  0  0  0  0  0  0  0
   -0.7780   -0.1430   -2.2720 C   0  0  0  0  0  0  0  0  0  0  0  0
    2.1320    0.5830    4.3050 C   0  0  0  0  0  0  0  0  0  0  0  0
    2.8410    1.7290    3.9390 C   0  0  0  0  0  0  0  0  0  0  0  0
    1.2900   -0.0380    3.3790 C   0  0  0  0  0  0  0  0  0  0  0  0
    1.1640    0.4980    2.0920 C   0  0  0  0  0  0  0  0  0  0  0  0
   -2.3600   -2.2830   -4.9780 C   0  0  0  0  0  0  0  0  0  0  0  0
    0.1090    0.2820   -0.0900 N   0  0  0  0  0  0  0  0  0  0  0  0
   -3.9270   -2.1040   -3.1480 C   0  0  0  0  0  0  0  0  0  0  0  0
   -3.6010   -2.5820   -4.4160 C   0  0  0  0  0  0  0  0  0  0  0  0
    3.7140    2.3730    4.8980 N   0  0  0  0  0  0  0  0  0  0  0  0
   -0.7480   -0.4540   -0.8460 N   0  0  0  0  0  0  0  0  0  0  0  0
   -0.1320    0.6890   -2.8490 O   0  0  0  0  0  0  0  0  0  0  0  0
    1.8650    1.6340    1.7280 C   0  0  0  0  0  0  0  0  0  0  0  0
    2.7080    2.2550    2.6530 C   0  0  0  0  0  0  0  0  0  0  0  0
    0.2540   -0.1830    1.1150 C   0  0  0  0  0  0  0  0  0  0  0  0
   -0.2230   -1.2300   -4.8200 O   0  0  0  0  0  0  0  0  0  0  0  0
    0.5910   -1.1710    3.7430 O   0  0  0  0  0  0  0  0  0  0  0  0
    4.4050    3.6350    4.5980 C   0  0  0  0  0  0  0  0  0  0  0  0
    3.9630    1.8030    6.2300 C   0  0  0  0  0  0  0  0  0  0  0  0
   -5.1960   -2.4160   -2.5910 C   0  0  0  0  0  0  0  0  0  0  0  0
   -4.5400   -3.3650   -5.1340 C   0  0  0  0  0  0  0  0  0  0  0  0
    5.7320    3.3780    3.8990 C   0  0  0  0  0  0  0  0  0  0  0  0
    2.9050    2.2590    7.2250 C   0  0  0  0  0  0  0  0  0  0  0  0
   -5.7830   -3.6630   -4.5740 C   0  0  0  0  0  0  0  0  0  0  0  0
   -6.1100   -3.1890   -3.3060 C   0  0  0  0  0  0  0  0  0  0  0  0
   -3.2690   -0.9420   -1.4590 H   0  0  0  0  0  0  0  0  0  0  0  0
    2.2340    0.1780    5.3010 H   0  0  0  0  0  0  0  0  0  0  0  0
   -2.1070   -2.6530   -5.9610 H   0  0  0  0  0  0  0  0  0  0  0  0
   -1.3310   -1.1750   -0.4440 H   0  0  0  0  0  0  0  0  0  0  0  0
    1.7610    2.0390    0.7320 H   0  0  0  0  0  0  0  0  0  0  0  0
    3.2570    3.1420    2.3730 H   0  0  0  0  0  0  0  0  0  0  0  0
   -0.2860   -1.0690    1.4150 H   0  0  0  0  0  0  0  0  0  0  0  0
   -0.0780   -1.6090   -5.6900 H   0  0  0  0  0  0  0  0  0  0  0  0
    0.0320   -1.5410    3.0560 H   0  0  0  0  0  0  0  0  0  0  0  0
    4.5910    4.1700    5.5290 H   0  0  0  0  0  0  0  0  0  0  0  0
    3.7730    4.2420    3.9500 H   0  0  0  0  0  0  0  0  0  0  0  0
    4.9440    2.1270    6.5790 H   0  0  0  0  0  0  0  0  0  0  0  0
    3.9430    0.7150    6.1620 H   0  0  0  0  0  0  0  0  0  0  0  0
   -5.4540   -2.0520   -1.6080 H   0  0  0  0  0  0  0  0  0  0  0  0
   -4.2920   -3.7320   -6.1190 H   0  0  0  0  0  0  0  0  0  0  0  0
    6.3700    2.7710    4.5420 H   0  0  0  0  0  0  0  0  0  0  0  0
    6.2240    4.3280    3.6930 H   0  0  0  0  0  0  0  0  0  0  0  0
    5.5530    2.8510    2.9620 H   0  0  0  0  0  0  0  0  0  0  0  0
    2.9200    3.3460    7.2980 H   0  0  0  0  0  0  0  0  0  0  0  0
    3.1150    1.8260    8.2030 H   0  0  0  0  0  0  0  0  0  0  0  0
    1.9220    1.9310    6.8860 H   0  0  0  0  0  0  0  0  0  0  0  0
   -6.4930   -4.2620   -5.1250 H   0  0  0  0  0  0  0  0  0  0  0  0
   -7.0730   -3.4210   -2.8760 H   0  0  0  0  0  0  0  0  0  0  0  0
  1  2  1  0  0  0  0
  1  3  2  0  0  0  0
  1  4  1  0  0  0  0
  2 11  2  0  0  0  0
  2 29  1  0  0  0  0
  3  9  1  0  0  0  0
  3 19  1  0  0  0  0
  4 14  1  0  0  0  0
  4 15  2  0  0  0  0
  5  6  1  0  0  0  0
  5  7  2  0  0  0  0
  5 30  1  0  0  0  0
  6 13  1  0  0  0  0
  6 17  2  0  0  0  0
  7  8  1  0  0  0  0
  7 20  1  0  0  0  0
  8 16  2  0  0  0  0
  8 18  1  0  0  0  0
  9 12  2  0  0  0  0
  9 31  1  0  0  0  0
 10 14  1  0  0  0  0
 10 18  2  0  0  0  0
 11 12  1  0  0  0  0
 11 23  1  0  0  0  0
 12 24  1  0  0  0  0
 13 21  1  0  0  0  0
 13 22  1  0  0  0  0
 14 32  1  0  0  0  0
 16 17  1  0  0  0  0
 16 33  1  0  0  0  0
 17 34  1  0  0  0  0
 18 35  1  0  0  0  0
 19 36  1  0  0  0  0
 20 37  1  0  0  0  0
 21 25  1  0  0  0  0
 21 38  1  0  0  0  0
 21 39  1  0  0  0  0
 22 26  1  0  0  0  0
 22 40  1  0  0  0  0
 22 41  1  0  0  0  0
 23 28  2  0  0  0  0
 23 42  1  0  0  0  0
 24 27  2  0  0  0  0
 24 43  1  0  0  0  0
 25 44  1  0  0  0  0
 25 45  1  0  0  0  0
 25 46  1  0  0  0  0
 26 47  1  0  0  0  0
 26 48  1  0  0  0  0
 26 49  1  0  0  0  0
 27 28  1  0  0  0  0
 27 50  1  0  0  0  0
 28 51  1  0  0  0  0
M  END
>  <$CLUSTER>
631

>  <INDEX>
14047

$$$$
Chemical Block A3577/0151844
 OpenBabel04062209303D

 48 50  0  0  1  0  0  0  0  0999 V2000
   -2.5670    0.8160    5.5470 S   0  0  0  0  0  0  0  0  0  0  0  0
    0.6030   -0.1660   -0.3880 N   0  0  0  0  0  0  0  0  0  0  0  0
    0.6620    0.0910   -2.8270 C   0  0  0  0  0  0  0  0  0  0  0  0
   -0.1390    1.2010   -2.6910 N   0  0  0  0  0  0  0  0  0  0  0  0
    0.3200   -1.0830    0.6300 C   0  0  0  0  0  0  0  0  0  0  0  0
    1.2020   -0.6640   -1.6450 C   0  0  1  0  0  0  0  0  0  0  0  0
    0.8140   -0.1260   -4.1840 C   0  0  0  0  0  0  0  0  0  0  0  0
   -0.4760    1.7020   -3.9160 C   0  0  0  0  0  0  0  0  0  0  0  0
    0.1020    0.8910   -4.8680 C   0  0  0  0  0  0  0  0  0  0  0  0
    0.3810    1.2880   -0.3020 C   0  0  0  0  0  0  0  0  0  0  0  0
   -0.5610    1.7360   -1.4100 C   0  0  0  0  0  0  0  0  0  0  0  0
   -1.7240    0.2450    4.1030 C   0  0  0  0  0  0  0  0  0  0  0  0
   -3.0970   -0.5980    6.2690 N   0  0  0  0  0  0  0  0  0  0  0  0
   -1.5930    1.4240    6.4390 O   0  0  0  0  0  0  0  0  0  0  0  0
   -3.7400    1.5660    5.1360 O   0  0  0  0  0  0  0  0  0  0  0  0
   -0.3860   -0.6000    1.8240 C   0  0  0  0  0  0  0  0  0  0  0  0
    0.6060   -2.2770    0.6120 O   0  0  0  0  0  0  0  0  0  0  0  0
   -0.3630   -0.0640    4.1690 C   0  0  0  0  0  0  0  0  0  0  0  0
   -2.4160    0.1200    2.8970 C   0  0  0  0  0  0  0  0  0  0  0  0
    0.3120   -0.4950    3.0280 C   0  0  0  0  0  0  0  0  0  0  0  0
   -1.7490   -0.3100    1.7510 C   0  0  0  0  0  0  0  0  0  0  0  0
    2.7290   -0.5850   -1.5790 C   0  0  0  0  0  0  0  0  0  0  0  0
   -1.2640    2.8300   -4.1180 C   0  0  0  0  0  0  0  0  0  0  0  0
   -4.1710   -1.3660    5.5840 C   0  0  0  0  0  0  0  0  0  0  0  0
   -2.0750   -1.5040    6.8580 C   0  0  0  0  0  0  0  0  0  0  0  0
    0.9280   -1.7110   -1.7700 H   0  0  0  0  0  0  0  0  0  0  0  0
    1.3750   -0.9270   -4.6410 H   0  0  0  0  0  0  0  0  0  0  0  0
    0.0260    1.0090   -5.9390 H   0  0  0  0  0  0  0  0  0  0  0  0
    1.3340    1.8060   -0.4070 H   0  0  0  0  0  0  0  0  0  0  0  0
   -0.0590    1.5300    0.6660 H   0  0  0  0  0  0  0  0  0  0  0  0
   -1.5680    1.3820   -1.1890 H   0  0  0  0  0  0  0  0  0  0  0  0
   -0.5620    2.8250   -1.4600 H   0  0  0  0  0  0  0  0  0  0  0  0
    0.1670    0.0310    5.1050 H   0  0  0  0  0  0  0  0  0  0  0  0
   -3.4690    0.3570    2.8520 H   0  0  0  0  0  0  0  0  0  0  0  0
    1.3620   -0.7440    3.0750 H   0  0  0  0  0  0  0  0  0  0  0  0
   -2.2810   -0.4170    0.8170 H   0  0  0  0  0  0  0  0  0  0  0  0
    3.0340    0.4540   -1.4530 H   0  0  0  0  0  0  0  0  0  0  0  0
    3.1530   -0.9790   -2.5020 H   0  0  0  0  0  0  0  0  0  0  0  0
    3.0870   -1.1730   -0.7340 H   0  0  0  0  0  0  0  0  0  0  0  0
   -1.5630    3.2420   -3.1540 H   0  0  0  0  0  0  0  0  0  0  0  0
   -2.1520    2.5550   -4.6870 H   0  0  0  0  0  0  0  0  0  0  0  0
   -0.6950    3.5770   -4.6720 H   0  0  0  0  0  0  0  0  0  0  0  0
   -4.9010   -0.6740    5.1650 H   0  0  0  0  0  0  0  0  0  0  0  0
   -4.6630   -2.0220    6.3020 H   0  0  0  0  0  0  0  0  0  0  0  0
   -3.7360   -1.9640    4.7830 H   0  0  0  0  0  0  0  0  0  0  0  0
   -1.3050   -0.9110    7.3510 H   0  0  0  0  0  0  0  0  0  0  0  0
   -1.6220   -2.1030    6.0680 H   0  0  0  0  0  0  0  0  0  0  0  0
   -2.5490   -2.1620    7.5870 H   0  0  0  0  0  0  0  0  0  0  0  0
  1 12  1  0  0  0  0
  1 13  1  0  0  0  0
  1 14  2  0  0  0  0
  1 15  2  0  0  0  0
  2  5  1  0  0  0  0
  2  6  1  0  0  0  0
  2 10  1  0  0  0  0
  3  4  1  0  0  0  0
  3  6  1  0  0  0  0
  3  7  2  0  0  0  0
  4  8  1  0  0  0  0
  4 11  1  0  0  0  0
  5 16  1  0  0  0  0
  5 17  2  0  0  0  0
  6 22  1  0  0  0  0
  6 26  1  6  0  0  0
  7  9  1  0  0  0  0
  7 27  1  0  0  0  0
  8  9  2  0  0  0  0
  8 23  1  0  0  0  0
  9 28  1  0  0  0  0
 10 11  1  0  0  0  0
 10 29  1  0  0  0  0
 10 30  1  0  0  0  0
 11 31  1  0  0  0  0
 11 32  1  0  0  0  0
 12 18  2  0  0  0  0
 12 19  1  0  0  0  0
 13 24  1  0  0  0  0
 13 25  1  0  0  0  0
 16 20  2  0  0  0  0
 16 21  1  0  0  0  0
 18 20  1  0  0  0  0
 18 33  1  0  0  0  0
 19 21  2  0  0  0  0
 19 34  1  0  0  0  0
 20 35  1  0  0  0  0
 21 36  1  0  0  0  0
 22 37  1  0  0  0  0
 22 38  1  0  0  0  0
 22 39  1  0  0  0  0
 23 40  1  0  0  0  0
 23 41  1  0  0  0  0
 23 42  1  0  0  0  0
 24 43  1  0  0  0  0
 24 44  1  0  0  0  0
 24 45  1  0  0  0  0
 25 46  1  0  0  0  0
 25 47  1  0  0  0  0
 25 48  1  0  0  0  0
M  END
>  <$CLUSTER>
182

>  <INDEX>
116660

$$$$
Comgenex CGX-0740668
 OpenBabel04062209303D

 54 57  0  0  0  0  0  0  0  0999 V2000
   -1.0420    3.0060    1.3930 C   0  0  0  0  0  0  0  0  0  0  0  0
   -1.6140    1.7590    0.7660 C   0  0  0  0  0  0  0  0  0  0  0  0
   -0.2970    3.9330    0.6640 C   0  0  0  0  0  0  0  0  0  0  0  0
   -1.4300    3.4530    5.7910 C   0  0  0  0  0  0  0  0  0  0  0  0
   -0.7530    0.9410    0.1890 N   0  0  0  0  0  0  0  0  0  0  0  0
   -0.1620    3.9440   -0.7190 N   0  0  0  0  0  0  0  0  0  0  0  0
   -1.2240    3.0700    2.7770 C   0  0  0  0  0  0  0  0  0  0  0  0
   -0.7250    4.2500    4.8950 N   0  0  0  0  0  0  0  0  0  0  0  0
   -1.3010    3.9240    7.0890 N   0  0  0  0  0  0  0  0  0  0  0  0
    0.3170    4.9450    1.4340 C   0  0  0  0  0  0  0  0  0  0  0  0
   -2.8310    1.5620    0.8180 O   0  0  0  0  0  0  0  0  0  0  0  0
   -0.6210    4.0980    3.4920 C   0  0  0  0  0  0  0  0  0  0  0  0
   -2.0960    2.4530    5.5360 O   0  0  0  0  0  0  0  0  0  0  0  0
   -1.8300    3.4490    8.3110 C   0  0  0  0  0  0  0  0  0  0  0  0
   -2.6440    2.3140    8.3910 C   0  0  0  0  0  0  0  0  0  0  0  0
    0.1590    5.0300    2.8220 C   0  0  0  0  0  0  0  0  0  0  0  0
   -3.1400    1.8880    9.6270 C   0  0  0  0  0  0  0  0  0  0  0  0
   -3.9230    0.8150    9.7760 F   0  0  0  0  0  0  0  0  0  0  0  0
    0.6970    1.0310    0.0460 C   0  0  0  0  0  0  0  0  0  0  0  0
   -1.1110   -0.3120   -0.4700 C   0  0  0  0  0  0  0  0  0  0  0  0
    1.1010    4.3350   -1.3280 C   0  0  0  0  0  0  0  0  0  0  0  0
   -1.2720    3.6180   -1.6020 C   0  0  0  0  0  0  0  0  0  0  0  0
   -2.0200    3.7170   10.7230 C   0  0  0  0  0  0  0  0  0  0  0  0
   -1.5230    4.1450    9.4910 C   0  0  0  0  0  0  0  0  0  0  0  0
   -2.8300    2.5870   10.7910 C   0  0  0  0  0  0  0  0  0  0  0  0
   -0.0120   -1.2720   -0.0520 C   0  0  0  0  0  0  0  0  0  0  0  0
   -0.4130    2.8930   -2.7110 C   0  0  0  0  0  0  0  0  0  0  0  0
    1.0330    3.3310   -2.5440 C   0  0  0  0  0  0  0  0  0  0  0  0
    1.1780   -0.3880    0.2870 C   0  0  0  0  0  0  0  0  0  0  0  0
   -1.8250    2.3300    3.2840 H   0  0  0  0  0  0  0  0  0  0  0  0
   -0.2270    5.0320    5.2940 H   0  0  0  0  0  0  0  0  0  0  0  0
   -0.7290    4.7520    7.1770 H   0  0  0  0  0  0  0  0  0  0  0  0
    0.9310    5.6800    0.9340 H   0  0  0  0  0  0  0  0  0  0  0  0
   -2.8900    1.7650    7.4940 H   0  0  0  0  0  0  0  0  0  0  0  0
    0.6450    5.8220    3.3720 H   0  0  0  0  0  0  0  0  0  0  0  0
    1.1180    1.7130    0.7850 H   0  0  0  0  0  0  0  0  0  0  0  0
    0.9680    1.3670   -0.9550 H   0  0  0  0  0  0  0  0  0  0  0  0
   -1.1280   -0.1900   -1.5530 H   0  0  0  0  0  0  0  0  0  0  0  0
   -2.0840   -0.6650   -0.1290 H   0  0  0  0  0  0  0  0  0  0  0  0
    1.9550    4.1480   -0.6780 H   0  0  0  0  0  0  0  0  0  0  0  0
    1.1080    5.3780   -1.6460 H   0  0  0  0  0  0  0  0  0  0  0  0
   -1.7810    4.5050   -1.9800 H   0  0  0  0  0  0  0  0  0  0  0  0
   -1.9980    2.9540   -1.1340 H   0  0  0  0  0  0  0  0  0  0  0  0
   -1.7760    4.2620   11.6230 H   0  0  0  0  0  0  0  0  0  0  0  0
   -0.8950    5.0220    9.4450 H   0  0  0  0  0  0  0  0  0  0  0  0
   -3.2170    2.2540   11.7430 H   0  0  0  0  0  0  0  0  0  0  0  0
    0.2350   -1.9500   -0.8690 H   0  0  0  0  0  0  0  0  0  0  0  0
   -0.3200   -1.8500    0.8190 H   0  0  0  0  0  0  0  0  0  0  0  0
   -0.7730    3.1740   -3.7010 H   0  0  0  0  0  0  0  0  0  0  0  0
   -0.4890    1.8120   -2.5900 H   0  0  0  0  0  0  0  0  0  0  0  0
    1.6610    2.4630   -2.3430 H   0  0  0  0  0  0  0  0  0  0  0  0
    1.3770    3.8260   -3.4520 H   0  0  0  0  0  0  0  0  0  0  0  0
    1.4700   -0.5220    1.3290 H   0  0  0  0  0  0  0  0  0  0  0  0
    2.0240   -0.6200   -0.3600 H   0  0  0  0  0  0  0  0  0  0  0  0
  1  2  1  0  0  0  0
  1  3  2  0  0  0  0
  1  7  1  0  0  0  0
  2  5  1  0  0  0  0
  2 11  2  0  0  0  0
  3  6  1  0  0  0  0
  3 10  1  0  0  0  0
  4  8  1  0  0  0  0
  4  9  1  0  0  0  0
  4 13  2  0  0  0  0
  5 19  1  0  0  0  0
  5 20  1  0  0  0  0
  6 21  1  0  0  0  0
  6 22  1  0  0  0  0
  7 12  2  0  0  0  0
  7 30  1  0  0  0  0
  8 12  1  0  0  0  0
  8 31  1  0  0  0  0
  9 14  1  0  0  0  0
  9 32  1  0  0  0  0
 10 16  2  0  0  0  0
 10 33  1  0  0  0  0
 12 16  1  0  0  0  0
 14 15  2  0  0  0  0
 14 24  1  0  0  0  0
 15 17  1  0  0  0  0
 15 34  1  0  0  0  0
 16 35  1  0  0  0  0
 17 18  1  0  0  0  0
 17 25  2  0  0  0  0
 19 29  1  0  0  0  0
 19 36  1  0  0  0  0
 19 37  1  0  0  0  0
 20 26  1  0  0  0  0
 20 38  1  0  0  0  0
 20 39  1  0  0  0  0
 21 28  1  0  0  0  0
 21 40  1  0  0  0  0
 21 41  1  0  0  0  0
 22 27  1  0  0  0  0
 22 42  1  0  0  0  0
 22 43  1  0  0  0  0
 23 24  2  0  0  0  0
 23 25  1  0  0  0  0
 23 44  1  0  0  0  0
 24 45  1  0  0  0  0
 25 46  1  0  0  0  0
 26 29  1  0  0  0  0
 26 47  1  0  0  0  0
 26 48  1  0  0  0  0
 27 28  1  0  0  0  0
 27 49  1  0  0  0  0
 27 50  1  0  0  0  0
 28 51  1  0  0  0  0
 28 52  1  0  0  0  0
 29 53  1  0  0  0  0
 29 54  1  0  0  0  0
M  END
>  <$CLUSTER>
386

>  <INDEX>
240716

$$$$
Asinex ASN 06745065
 OpenBabel04062209303D

 42 44  0  0  0  0  0  0  0  0999 V2000
    0.2370   -0.0550    0.7180 C   0  0  0  0  0  0  0  0  0  0  0  0
   -0.5150    0.4580   -0.2960 N   0  0  0  0  0  0  0  0  0  0  0  0
    1.3690   -0.5340    0.0830 C   0  0  0  0  0  0  0  0  0  0  0  0
    0.1020    0.3120   -1.4850 N   0  0  0  0  0  0  0  0  0  0  0  0
    1.2640   -0.2970   -1.2630 N   0  0  0  0  0  0  0  0  0  0  0  0
   -0.0390   -0.0990    2.0290 N   0  0  0  0  0  0  0  0  0  0  0  0
    2.3660   -1.1390    0.8660 C   0  0  0  0  0  0  0  0  0  0  0  0
    2.1240   -1.2030    2.2120 N   0  0  0  0  0  0  0  0  0  0  0  0
    0.9670   -0.6930    2.7000 C   0  0  0  0  0  0  0  0  0  0  0  0
   -1.8100    1.0940   -0.2150 C   0  0  0  0  0  0  0  0  0  0  0  0
    3.5220   -1.6370    0.2930 N   0  0  0  0  0  0  0  0  0  0  0  0
   -2.9470    0.1080   -0.4150 C   0  0  0  0  0  0  0  0  0  0  0  0
    0.7660   -0.7990    4.2220 C   0  0  0  0  0  0  0  0  0  0  0  0
    4.5450   -2.2600    1.1050 C   0  0  0  0  0  0  0  0  0  0  0  0
   -3.6320   -0.4260    0.6860 C   0  0  0  0  0  0  0  0  0  0  0  0
   -3.3110   -0.3020   -1.7070 C   0  0  0  0  0  0  0  0  0  0  0  0
    5.6990   -2.7160    0.2270 C   0  0  0  0  0  0  0  0  0  0  0  0
    6.7960   -3.3910    1.0540 C   0  0  0  0  0  0  0  0  0  0  0  0
    7.9520   -3.8480    0.1770 C   0  0  0  0  0  0  0  0  0  0  0  0
   -4.6770   -1.3360    0.4970 C   0  0  0  0  0  0  0  0  0  0  0  0
   -4.3560   -1.2110   -1.8950 C   0  0  0  0  0  0  0  0  0  0  0  0
   -5.0400   -1.7250   -0.7930 C   0  0  0  0  0  0  0  0  0  0  0  0
   -1.8720    1.8630   -0.9850 H   0  0  0  0  0  0  0  0  0  0  0  0
   -1.9140    1.5550    0.7670 H   0  0  0  0  0  0  0  0  0  0  0  0
    3.6540   -1.5650   -0.7060 H   0  0  0  0  0  0  0  0  0  0  0  0
   -0.1930   -0.3580    4.4930 H   0  0  0  0  0  0  0  0  0  0  0  0
    1.5680   -0.2660    4.7320 H   0  0  0  0  0  0  0  0  0  0  0  0
    0.7810   -1.8480    4.5180 H   0  0  0  0  0  0  0  0  0  0  0  0
    4.1210   -3.1220    1.6210 H   0  0  0  0  0  0  0  0  0  0  0  0
    4.9110   -1.5410    1.8380 H   0  0  0  0  0  0  0  0  0  0  0  0
   -3.3510   -0.1330    1.6870 H   0  0  0  0  0  0  0  0  0  0  0  0
   -2.7800    0.0880   -2.5630 H   0  0  0  0  0  0  0  0  0  0  0  0
    6.1210   -1.8500   -0.2820 H   0  0  0  0  0  0  0  0  0  0  0  0
    5.3240   -3.4250   -0.5110 H   0  0  0  0  0  0  0  0  0  0  0  0
    6.3740   -4.2570    1.5630 H   0  0  0  0  0  0  0  0  0  0  0  0
    7.1700   -2.6820    1.7920 H   0  0  0  0  0  0  0  0  0  0  0  0
    7.5870   -4.5580   -0.5650 H   0  0  0  0  0  0  0  0  0  0  0  0
    8.7100   -4.3270    0.7960 H   0  0  0  0  0  0  0  0  0  0  0  0
    8.3870   -2.9860   -0.3280 H   0  0  0  0  0  0  0  0  0  0  0  0
   -5.2030   -1.7380    1.3500 H   0  0  0  0  0  0  0  0  0  0  0  0
   -4.6340   -1.5150   -2.8930 H   0  0  0  0  0  0  0  0  0  0  0  0
   -5.8500   -2.4240   -0.9380 H   0  0  0  0  0  0  0  0  0  0  0  0
  1  2  1  0  0  0  0
  1  3  2  0  0  0  0
  1  6  1  0  0  0  0
  2  4  1  0  0  0  0
  2 10  1  0  0  0  0
  3  5  1  0  0  0  0
  3  7  1  0  0  0  0
  4  5  2  0  0  0  0
  6  9  2  0  0  0  0
  7  8  2  0  0  0  0
  7 11  1  0  0  0  0
  8  9  1  0  0  0  0
  9 13  1  0  0  0  0
 10 12  1  0  0  0  0
 10 23  1  0  0  0  0
 10 24  1  0  0  0  0
 11 14  1  0  0  0  0
 11 25  1  0  0  0  0
 12 15  2  0  0  0  0
 12 16  1  0  0  0  0
 13 26  1  0  0  0  0
 13 27  1  0  0  0  0
 13 28  1  0  0  0  0
 14 17  1  0  0  0  0
 14 29  1  0  0  0  0
 14 30  1  0  0  0  0
 15 20  1  0  0  0  0
 15 31  1  0  0  0  0
 16 21  2  0  0  0  0
 16 32  1  0  0  0  0
 17 18  1  0  0  0  0
 17 33  1  0  0  0  0
 17 34  1  0  0  0  0
 18 19  1  0  0  0  0
 18 35  1  0  0  0  0
 18 36  1  0  0  0  0
 19 37  1  0  0  0  0
 19 38  1  0  0  0  0
 19 39  1  0  0  0  0
 20 22  2  0  0  0  0
 20 40  1  0  0  0  0
 21 22  1  0  0  0  0
 21 41  1  0  0  0  0
 22 42  1  0  0  0  0
M  END
>  <$CLUSTER>
270

>  <INDEX>
163325

$$$$
Life Chemicals F0497-0082
 OpenBabel04062209303D

 53 56  0  0  1  0  0  0  0  0999 V2000
   -0.5490   -0.0700   -1.2750 C   0  0  0  0  0  0  0  0  0  0  0  0
   -2.2600    0.1830    0.9500 C   0  0  0  0  0  0  0  0  0  0  0  0
   -1.0530    0.8300    0.9640 N   0  0  0  0  0  0  0  0  0  0  0  0
   -0.0410    0.7560   -0.0950 C   0  0  1  0  0  0  0  0  0  0  0  0
   -1.7620   -0.6710   -1.2540 C   0  0  0  0  0  0  0  0  0  0  0  0
    0.3410   -0.1320   -2.4550 C   0  0  0  0  0  0  0  0  0  0  0  0
   -2.5830   -0.5560   -0.1340 N   0  0  0  0  0  0  0  0  0  0  0  0
   -2.9020    0.4470    2.0650 N   0  0  0  0  0  0  0  0  0  0  0  0
    1.2680    0.2270    0.4690 C   0  0  0  0  0  0  0  0  0  0  0  0
   -0.8990    1.5660    2.0780 N   0  0  0  0  0  0  0  0  0  0  0  0
   -2.0410    1.2890    2.7150 C   0  0  0  0  0  0  0  0  0  0  0  0
    0.7990   -1.3980   -2.7410 N   0  0  0  0  0  0  0  0  0  0  0  0
    2.4240    1.0200    0.4090 C   0  0  0  0  0  0  0  0  0  0  0  0
    3.6370    0.5470    0.9120 C   0  0  0  0  0  0  0  0  0  0  0  0
    0.6640    0.8800   -3.0650 O   0  0  0  0  0  0  0  0  0  0  0  0
    1.3580   -1.0540    1.0410 C   0  0  0  0  0  0  0  0  0  0  0  0
    3.7110   -0.7240    1.4780 C   0  0  0  0  0  0  0  0  0  0  0  0
    2.5730   -1.5240    1.5430 C   0  0  0  0  0  0  0  0  0  0  0  0
    1.6510   -1.8510   -3.7620 C   0  0  0  0  0  0  0  0  0  0  0  0
   -2.3560   -1.4500   -2.3970 C   0  0  0  0  0  0  0  0  0  0  0  0
    4.8130    1.2710    0.8890 O   0  0  0  0  0  0  0  0  0  0  0  0
    3.3480   -2.8860   -5.7490 C   0  0  0  0  0  0  0  0  0  0  0  0
    2.2330   -1.0030   -4.7090 C   0  0  0  0  0  0  0  0  0  0  0  0
    1.9310   -3.2250   -3.8240 C   0  0  0  0  0  0  0  0  0  0  0  0
    4.9510   -1.1050    1.9460 O   0  0  0  0  0  0  0  0  0  0  0  0
    2.7740   -3.7390   -4.8110 C   0  0  0  0  0  0  0  0  0  0  0  0
    3.0770   -1.5210   -5.6980 C   0  0  0  0  0  0  0  0  0  0  0  0
    4.2490   -3.4340   -6.8060 C   0  0  0  0  0  0  0  0  0  0  0  0
    4.7740    2.5740    0.3170 C   0  0  0  0  0  0  0  0  0  0  0  0
    5.0630   -2.3960    2.5300 C   0  0  0  0  0  0  0  0  0  0  0  0
    0.1520    1.7580   -0.4780 H   0  0  0  0  0  0  0  0  0  0  0  0
   -3.4640   -1.0500   -0.1320 H   0  0  0  0  0  0  0  0  0  0  0  0
   -2.2710    1.7050    3.6850 H   0  0  0  0  0  0  0  0  0  0  0  0
    0.4690   -2.1190   -2.1150 H   0  0  0  0  0  0  0  0  0  0  0  0
    2.3750    2.0050   -0.0300 H   0  0  0  0  0  0  0  0  0  0  0  0
    0.4790   -1.6800    1.0930 H   0  0  0  0  0  0  0  0  0  0  0  0
    2.6300   -2.5090    1.9820 H   0  0  0  0  0  0  0  0  0  0  0  0
   -3.3390   -1.8240   -2.1100 H   0  0  0  0  0  0  0  0  0  0  0  0
   -1.7050   -2.2900   -2.6410 H   0  0  0  0  0  0  0  0  0  0  0  0
   -2.4540   -0.8010   -3.2670 H   0  0  0  0  0  0  0  0  0  0  0  0
    2.0300    0.0570   -4.6770 H   0  0  0  0  0  0  0  0  0  0  0  0
    1.4890   -3.8930   -3.0990 H   0  0  0  0  0  0  0  0  0  0  0  0
    2.9810   -4.7980   -4.8470 H   0  0  0  0  0  0  0  0  0  0  0  0
    3.5210   -0.8580   -6.4260 H   0  0  0  0  0  0  0  0  0  0  0  0
    4.3390   -4.5130   -6.6830 H   0  0  0  0  0  0  0  0  0  0  0  0
    5.2340   -2.9750   -6.7180 H   0  0  0  0  0  0  0  0  0  0  0  0
    3.8320   -3.2130   -7.7890 H   0  0  0  0  0  0  0  0  0  0  0  0
    5.7660    3.0230    0.3680 H   0  0  0  0  0  0  0  0  0  0  0  0
    4.0670    3.1920    0.8700 H   0  0  0  0  0  0  0  0  0  0  0  0
    4.4590    2.5040   -0.7240 H   0  0  0  0  0  0  0  0  0  0  0  0
    6.0910   -2.5610    2.8530 H   0  0  0  0  0  0  0  0  0  0  0  0
    4.7870   -3.1520    1.7950 H   0  0  0  0  0  0  0  0  0  0  0  0
    4.3970   -2.4650    3.3900 H   0  0  0  0  0  0  0  0  0  0  0  0
  1  4  1  0  0  0  0
  1  5  2  0  0  0  0
  1  6  1  0  0  0  0
  2  3  1  0  0  0  0
  2  7  1  0  0  0  0
  2  8  2  0  0  0  0
  3  4  1  0  0  0  0
  3 10  1  0  0  0  0
  4  9  1  0  0  0  0
  4 31  1  6  0  0  0
  5  7  1  0  0  0  0
  5 20  1  0  0  0  0
  6 12  1  0  0  0  0
  6 15  2  0  0  0  0
  7 32  1  0  0  0  0
  8 11  1  0  0  0  0
  9 13  2  0  0  0  0
  9 16  1  0  0  0  0
 10 11  2  0  0  0  0
 11 33  1  0  0  0  0
 12 19  1  0  0  0  0
 12 34  1  0  0  0  0
 13 14  1  0  0  0  0
 13 35  1  0  0  0  0
 14 17  2  0  0  0  0
 14 21  1  0  0  0  0
 16 18  2  0  0  0  0
 16 36  1  0  0  0  0
 17 18  1  0  0  0  0
 17 25  1  0  0  0  0
 18 37  1  0  0  0  0
 19 23  1  0  0  0  0
 19 24  2  0  0  0  0
 20 38  1  0  0  0  0
 20 39  1  0  0  0  0
 20 40  1  0  0  0  0
 21 29  1  0  0  0  0
 22 26  2  0  0  0  0
 22 27  1  0  0  0  0
 22 28  1  0  0  0  0
 23 27  2  0  0  0  0
 23 41  1  0  0  0  0
 24 26  1  0  0  0  0
 24 42  1  0  0  0  0
 25 30  1  0  0  0  0
 26 43  1  0  0  0  0
 27 44  1  0  0  0  0
 28 45  1  0  0  0  0
 28 46  1  0  0  0  0
 28 47  1  0  0  0  0
 29 48  1  0  0  0  0
 29 49  1  0  0  0  0
 29 50  1  0  0  0  0
 30 51  1  0  0  0  0
 30 52  1  0  0  0  0
 30 53  1  0  0  0  0
M  END
>  <$CLUSTER>
737

>  <INDEX>
271154

$$$$
InnovaPharm STT-00192300
 OpenBabel04062209303D

 49 51  0  0  1  0  0  0  0  0999 V2000
    1.3320    0.1700    0.5180 C   0  0  0  0  0  0  0  0  0  0  0  0
    1.8770   -0.8750    1.3020 C   0  0  0  0  0  0  0  0  0  0  0  0
    2.2140    1.1060   -0.0530 C   0  0  0  0  0  0  0  0  0  0  0  0
   -0.1260    0.2720    0.2990 C   0  0  0  0  0  0  0  0  0  0  0  0
    3.5750    0.9560    0.1690 C   0  0  0  0  0  0  0  0  0  0  0  0
    4.1180   -0.0380    0.9010 N   0  0  0  0  0  0  0  0  0  0  0  0
   -0.7880   -0.4920   -0.6780 C   0  0  0  0  0  0  0  0  0  0  0  0
    3.2700   -0.9420    1.4460 C   0  0  0  0  0  0  0  0  0  0  0  0
   -2.1830   -0.4160   -0.8180 C   0  0  0  0  0  0  0  0  0  0  0  0
    1.7600    2.2000   -0.8590 C   0  0  0  0  0  0  0  0  0  0  0  0
    1.3920    3.0850   -1.5130 N   0  0  0  0  0  0  0  0  0  0  0  0
    0.9990   -1.9350    1.9240 C   0  0  0  0  0  0  0  0  0  0  0  0
   -0.8910    1.1560    1.0780 C   0  0  0  0  0  0  0  0  0  0  0  0
    1.6940   -2.8070    2.9500 N   0  3  2  0  0  0  0  0  0  0  0  0
    3.9160   -2.0120    2.2850 C   0  0  0  0  0  0  0  0  0  0  0  0
   -2.9320    0.4880   -0.0520 C   0  0  0  0  0  0  0  0  0  0  0  0
   -2.2740    1.2710    0.8990 C   0  0  0  0  0  0  0  0  0  0  0  0
    4.4660    1.8790   -0.3910 N   0  0  0  0  0  0  0  0  0  0  0  0
    3.0460   -3.2480    2.4570 C   0  0  0  0  0  0  0  0  0  0  0  0
   -0.0490   -1.3680   -1.4370 O   0  0  0  0  0  0  0  0  0  0  0  0
   -2.8260   -1.1960   -1.7480 O   0  0  0  0  0  0  0  0  0  0  0  0
   -4.2790    0.5180   -0.3030 O   0  0  0  0  0  0  0  0  0  0  0  0
    0.8360   -3.9620    3.3810 C   0  0  0  0  0  0  0  0  0  0  0  0
   -3.1460   -2.4700   -1.1870 C   0  0  0  0  0  0  0  0  0  0  0  0
    0.0820   -0.9040   -2.7810 C   0  0  0  0  0  0  0  0  0  0  0  0
   -5.0590    1.4440    0.4440 C   0  0  0  0  0  0  0  0  0  0  0  0
    0.6270   -2.5790    1.1270 H   0  0  0  0  0  0  0  0  0  0  0  0
    0.1600   -1.4380    2.4120 H   0  0  0  0  0  0  0  0  0  0  0  0
   -0.4020    1.7580    1.8290 H   0  0  0  0  0  0  0  0  0  0  0  0
    1.8460   -2.2470    3.7770 H   0  0  0  0  0  0  0  0  0  0  0  0
    4.1280   -1.5980    3.2710 H   0  0  0  0  0  0  0  0  0  0  0  0
    4.8500   -2.3100    1.8080 H   0  0  0  0  0  0  0  0  0  0  0  0
   -2.8360    1.9700    1.5000 H   0  0  0  0  0  0  0  0  0  0  0  0
    5.4590    1.7790   -0.2370 H   0  0  0  0  0  0  0  0  0  0  0  0
    4.1160    2.6450   -0.9490 H   0  0  0  0  0  0  0  0  0  0  0  0
    2.9410   -3.7610    1.5010 H   0  0  0  0  0  0  0  0  0  0  0  0
    3.5020   -3.9220    3.1830 H   0  0  0  0  0  0  0  0  0  0  0  0
    0.6370   -4.6070    2.5250 H   0  0  0  0  0  0  0  0  0  0  0  0
   -0.1060   -3.5860    3.7790 H   0  0  0  0  0  0  0  0  0  0  0  0
    1.3540   -4.5320    4.1520 H   0  0  0  0  0  0  0  0  0  0  0  0
   -3.6550   -3.0780   -1.9340 H   0  0  0  0  0  0  0  0  0  0  0  0
   -3.7980   -2.3340   -0.3240 H   0  0  0  0  0  0  0  0  0  0  0  0
   -2.2290   -2.9700   -0.8750 H   0  0  0  0  0  0  0  0  0  0  0  0
    0.6710   -1.6180   -3.3560 H   0  0  0  0  0  0  0  0  0  0  0  0
    0.5810    0.0650   -2.7840 H   0  0  0  0  0  0  0  0  0  0  0  0
   -0.9070   -0.8050   -3.2290 H   0  0  0  0  0  0  0  0  0  0  0  0
   -6.1040    1.3620    0.1460 H   0  0  0  0  0  0  0  0  0  0  0  0
   -4.7040    2.4570    0.2510 H   0  0  0  0  0  0  0  0  0  0  0  0
   -4.9660    1.2230    1.5070 H   0  0  0  0  0  0  0  0  0  0  0  0
  1  2  1  0  0  0  0
  1  3  2  0  0  0  0
  1  4  1  0  0  0  0
  2  8  2  0  0  0  0
  2 12  1  0  0  0  0
  3  5  1  0  0  0  0
  3 10  1  0  0  0  0
  4  7  2  0  0  0  0
  4 13  1  0  0  0  0
  5  6  2  0  0  0  0
  5 18  1  0  0  0  0
  6  8  1  0  0  0  0
  7  9  1  0  0  0  0
  7 20  1  0  0  0  0
  8 15  1  0  0  0  0
  9 16  2  0  0  0  0
  9 21  1  0  0  0  0
 10 11  3  0  0  0  0
 12 14  1  0  0  0  0
 12 27  1  0  0  0  0
 12 28  1  0  0  0  0
 13 17  2  0  0  0  0
 13 29  1  0  0  0  0
 14 19  1  0  0  0  0
 14 23  1  0  0  0  0
 14 30  1  1  0  0  0
 15 19  1  0  0  0  0
 15 31  1  0  0  0  0
 15 32  1  0  0  0  0
 16 17  1  0  0  0  0
 16 22  1  0  0  0  0
 17 33  1  0  0  0  0
 18 34  1  0  0  0  0
 18 35  1  0  0  0  0
 19 36  1  0  0  0  0
 19 37  1  0  0  0  0
 20 25  1  0  0  0  0
 21 24  1  0  0  0  0
 22 26  1  0  0  0  0
 23 38  1  0  0  0  0
 23 39  1  0  0  0  0
 23 40  1  0  0  0  0
 24 41  1  0  0  0  0
 24 42  1  0  0  0  0
 24 43  1  0  0  0  0
 25 44  1  0  0  0  0
 25 45  1  0  0  0  0
 25 46  1  0  0  0  0
 26 47  1  0  0  0  0
 26 48  1  0  0  0  0
 26 49  1  0  0  0  0
M  CHG  1  14   1
M  END
>  <$CLUSTER>
607

>  <INDEX>
401219

$$$$
Tripos 1534-05651
 OpenBabel04062209303D

 49 52  0  0  1  0  0  0  0  0999 V2000
   -1.1570    0.4180   -0.5200 N   0  0  0  0  0  0  0  0  0  0  0  0
   -1.2730    0.0030   -1.8340 C   0  0  0  0  0  0  0  0  0  0  0  0
   -0.8920    6.5430   -1.7120 C   0  0  0  0  0  0  0  0  0  0  0  0
   -2.0470    5.7540   -1.1480 C   0  0  0  0  0  0  0  0  0  0  0  0
   -1.1750    7.9310   -2.6340 S   0  0  0  0  0  0  0  0  0  0  0  0
   -1.7310    4.6500   -0.4170 N   0  0  0  0  0  0  0  0  0  0  0  0
   -0.8720   -0.6980    0.3510 C   0  0  1  0  0  0  0  0  0  0  0  0
   -1.1600   -1.3640   -1.8870 O   0  0  0  0  0  0  0  0  0  0  0  0
    0.4950    8.2010   -2.8650 C   0  0  0  0  0  0  0  0  0  0  0  0
    0.4630    6.2720   -1.5710 C   0  0  0  0  0  0  0  0  0  0  0  0
   -1.2000   -1.8820   -0.5460 C   0  0  0  0  0  0  0  0  0  0  0  0
   -1.2820    1.7920   -0.0180 C   0  0  0  0  0  0  0  0  0  0  0  0
    1.2610    7.2420   -2.2450 C   0  0  0  0  0  0  0  0  0  0  0  0
   -0.1990    2.7030   -0.5930 C   0  0  0  0  0  0  0  0  0  0  0  0
   -2.6760    2.3540   -0.2880 C   0  0  0  0  0  0  0  0  0  0  0  0
   -0.3900    4.1350   -0.1130 C   0  0  0  0  0  0  0  0  0  0  0  0
   -2.7710    3.8030    0.1810 C   0  0  0  0  0  0  0  0  0  0  0  0
   -1.4440    0.6960   -2.8270 O   0  0  0  0  0  0  0  0  0  0  0  0
   -3.2000    6.1340   -1.3680 O   0  0  0  0  0  0  0  0  0  0  0  0
    0.5560   -0.6940    0.8580 C   0  0  0  0  0  0  0  0  0  0  0  0
    1.0490    9.5940   -3.8100 S   0  0  0  0  0  0  0  0  0  0  0  0
    0.8000   -0.5490    2.2330 C   0  0  0  0  0  0  0  0  0  0  0  0
    1.6560   -0.8120   -0.0070 C   0  0  0  0  0  0  0  0  0  0  0  0
    2.7500    9.1550   -4.2210 C   0  0  0  0  0  0  0  0  0  0  0  0
    2.1050   -0.5280    2.7290 C   0  0  0  0  0  0  0  0  0  0  0  0
    2.9610   -0.7910    0.4910 C   0  0  0  0  0  0  0  0  0  0  0  0
    3.1850   -0.6490    1.8580 C   0  0  0  0  0  0  0  0  0  0  0  0
   -1.4440   -0.6950    1.2790 H   0  0  0  0  0  0  0  0  0  0  0  0
    0.8610    5.4330   -1.0200 H   0  0  0  0  0  0  0  0  0  0  0  0
   -2.1920   -2.2720   -0.3170 H   0  0  0  0  0  0  0  0  0  0  0  0
   -0.4610   -2.6730   -0.4200 H   0  0  0  0  0  0  0  0  0  0  0  0
   -1.1390    1.7580    1.0620 H   0  0  0  0  0  0  0  0  0  0  0  0
    2.3410    7.2260   -2.2660 H   0  0  0  0  0  0  0  0  0  0  0  0
    0.7790    2.3450   -0.2700 H   0  0  0  0  0  0  0  0  0  0  0  0
   -0.2530    2.6800   -1.6810 H   0  0  0  0  0  0  0  0  0  0  0  0
   -2.8790    2.3100   -1.3580 H   0  0  0  0  0  0  0  0  0  0  0  0
   -3.4130    1.7550    0.2470 H   0  0  0  0  0  0  0  0  0  0  0  0
    0.3490    4.7700   -0.6020 H   0  0  0  0  0  0  0  0  0  0  0  0
   -0.2390    4.1660    0.9660 H   0  0  0  0  0  0  0  0  0  0  0  0
   -2.6640    3.8290    1.2650 H   0  0  0  0  0  0  0  0  0  0  0  0
   -3.7480    4.1980   -0.0970 H   0  0  0  0  0  0  0  0  0  0  0  0
   -0.0320   -0.4530    2.9150 H   0  0  0  0  0  0  0  0  0  0  0  0
    1.4910   -0.9200   -1.0690 H   0  0  0  0  0  0  0  0  0  0  0  0
    3.1990    9.9530   -4.8120 H   0  0  0  0  0  0  0  0  0  0  0  0
    2.7570    8.2290   -4.7960 H   0  0  0  0  0  0  0  0  0  0  0  0
    3.3220    9.0170   -3.3030 H   0  0  0  0  0  0  0  0  0  0  0  0
    2.2770   -0.4180    3.7890 H   0  0  0  0  0  0  0  0  0  0  0  0
    3.7980   -0.8850   -0.1850 H   0  0  0  0  0  0  0  0  0  0  0  0
    4.1940   -0.6330    2.2420 H   0  0  0  0  0  0  0  0  0  0  0  0
  1  2  1  0  0  0  0
  1  7  1  0  0  0  0
  1 12  1  0  0  0  0
  2  8  1  0  0  0  0
  2 18  2  0  0  0  0
  3  4  1  0  0  0  0
  3  5  1  0  0  0  0
  3 10  2  0  0  0  0
  4  6  1  0  0  0  0
  4 19  2  0  0  0  0
  5  9  1  0  0  0  0
  6 16  1  0  0  0  0
  6 17  1  0  0  0  0
  7 11  1  0  0  0  0
  7 20  1  0  0  0  0
  7 28  1  1  0  0  0
  8 11  1  0  0  0  0
  9 13  2  0  0  0  0
  9 21  1  0  0  0  0
 10 13  1  0  0  0  0
 10 29  1  0  0  0  0
 11 30  1  0  0  0  0
 11 31  1  0  0  0  0
 12 14  1  0  0  0  0
 12 15  1  0  0  0  0
 12 32  1  0  0  0  0
 13 33  1  0  0  0  0
 14 16  1  0  0  0  0
 14 34  1  0  0  0  0
 14 35  1  0  0  0  0
 15 17  1  0  0  0  0
 15 36  1  0  0  0  0
 15 37  1  0  0  0  0
 16 38  1  0  0  0  0
 16 39  1  0  0  0  0
 17 40  1  0  0  0  0
 17 41  1  0  0  0  0
 20 22  2  0  0  0  0
 20 23  1  0  0  0  0
 21 24  1  0  0  0  0
 22 25  1  0  0  0  0
 22 42  1  0  0  0  0
 23 26  2  0  0  0  0
 23 43  1  0  0  0  0
 24 44  1  0  0  0  0
 24 45  1  0  0  0  0
 24 46  1  0  0  0  0
 25 27  2  0  0  0  0
 25 47  1  0  0  0  0
 26 27  1  0  0  0  0
 26 48  1  0  0  0  0
 27 49  1  0  0  0  0
M  END
>  <$CLUSTER>
695

>  <INDEX>
455659

$$$$
Chembridge 5859646
 OpenBabel04062209303D

 49 50  0  0  0  0  0  0  0  0999 V2000
    1.5520   -0.1890    2.2980 C   0  0  0  0  0  0  0  0  0  0  0  0
   -0.9820    0.2830   -1.0830 N   0  0  0  0  0  0  0  0  0  0  0  0
    0.9820   -0.2830    1.0830 N   0  0  0  0  0  0  0  0  0  0  0  0
   -1.4900    0.2850   -2.3190 C   0  0  0  0  0  0  0  0  0  0  0  0
   -0.0020   -5.0320    6.9990 C   0  0  0  0  0  0  0  0  0  0  0  0
    0.2610   -4.1940    6.1790 C   0  0  0  0  0  0  0  0  0  0  0  0
    1.1820   -1.2540    3.3000 C   0  0  0  0  0  0  0  0  0  0  0  0
   -0.3220   -6.0550    7.9950 C   0  0  0  0  0  0  0  0  0  0  0  0
   -0.0330    1.3000   -0.5920 C   0  0  0  0  0  0  0  0  0  0  0  0
   -1.2520   -0.6880   -0.0050 C   0  0  0  0  0  0  0  0  0  0  0  0
    0.0330   -1.3000    0.5920 C   0  0  0  0  0  0  0  0  0  0  0  0
    1.2520    0.6880    0.0050 C   0  0  0  0  0  0  0  0  0  0  0  0
   -1.2450    1.1090   -3.1950 O   0  0  0  0  0  0  0  0  0  0  0  0
    2.3400    0.7000    2.6280 O   0  0  0  0  0  0  0  0  0  0  0  0
    0.5760   -3.1960    5.2020 C   0  0  0  0  0  0  0  0  0  0  0  0
    2.0900   -1.5260    4.3280 C   0  0  0  0  0  0  0  0  0  0  0  0
   -0.0260   -1.9320    3.2280 C   0  0  0  0  0  0  0  0  0  0  0  0
   -2.3450   -0.7470   -2.5560 O   0  0  0  0  0  0  0  0  0  0  0  0
   -0.3280   -2.9080    4.1810 C   0  0  0  0  0  0  0  0  0  0  0  0
    1.7830   -2.5040    5.2770 C   0  0  0  0  0  0  0  0  0  0  0  0
   -0.3100   -7.3460    7.3800 O   0  0  0  0  0  0  0  0  0  0  0  0
    0.7340   -6.0750    9.1040 C   0  0  0  0  0  0  0  0  0  0  0  0
   -1.7120   -5.8200    8.5920 C   0  0  0  0  0  0  0  0  0  0  0  0
   -2.9540   -0.8650   -3.8280 C   0  0  0  0  0  0  0  0  0  0  0  0
   -3.8540   -2.0830   -3.8400 C   0  0  0  0  0  0  0  0  0  0  0  0
   -0.5260    1.8920    0.1790 H   0  0  0  0  0  0  0  0  0  0  0  0
    0.2450    1.9470   -1.4240 H   0  0  0  0  0  0  0  0  0  0  0  0
   -1.8650   -1.4940   -0.4090 H   0  0  0  0  0  0  0  0  0  0  0  0
   -1.7970   -0.1810    0.7910 H   0  0  0  0  0  0  0  0  0  0  0  0
   -0.2450   -1.9470    1.4240 H   0  0  0  0  0  0  0  0  0  0  0  0
    0.5260   -1.8920   -0.1790 H   0  0  0  0  0  0  0  0  0  0  0  0
    1.7970    0.1810   -0.7910 H   0  0  0  0  0  0  0  0  0  0  0  0
    1.8650    1.4940    0.4090 H   0  0  0  0  0  0  0  0  0  0  0  0
    3.0220   -0.9840    4.3880 H   0  0  0  0  0  0  0  0  0  0  0  0
   -0.7290   -1.7070    2.4400 H   0  0  0  0  0  0  0  0  0  0  0  0
   -1.2660   -3.4410    4.1260 H   0  0  0  0  0  0  0  0  0  0  0  0
    2.4820   -2.7240    6.0700 H   0  0  0  0  0  0  0  0  0  0  0  0
    0.5650   -7.4830    7.0090 H   0  0  0  0  0  0  0  0  0  0  0  0
    1.7180   -6.2430    8.6660 H   0  0  0  0  0  0  0  0  0  0  0  0
    0.5080   -6.8770    9.8070 H   0  0  0  0  0  0  0  0  0  0  0  0
    0.7280   -5.1200    9.6290 H   0  0  0  0  0  0  0  0  0  0  0  0
   -2.4530   -5.8080    7.7930 H   0  0  0  0  0  0  0  0  0  0  0  0
   -1.7260   -4.8640    9.1150 H   0  0  0  0  0  0  0  0  0  0  0  0
   -1.9460   -6.6210    9.2930 H   0  0  0  0  0  0  0  0  0  0  0  0
   -2.1840   -0.9730   -4.5920 H   0  0  0  0  0  0  0  0  0  0  0  0
   -3.5460    0.0270   -4.0330 H   0  0  0  0  0  0  0  0  0  0  0  0
   -3.2610   -2.9750   -3.6350 H   0  0  0  0  0  0  0  0  0  0  0  0
   -4.3250   -2.1770   -4.8180 H   0  0  0  0  0  0  0  0  0  0  0  0
   -4.6230   -1.9740   -3.0750 H   0  0  0  0  0  0  0  0  0  0  0  0
  1  3  1  0  0  0  0
  1  7  1  0  0  0  0
  1 14  2  0  0  0  0
  2  4  1  0  0  0  0
  2  9  1  0  0  0  0
  2 10  1  0  0  0  0
  3 11  1  0  0  0  0
  3 12  1  0  0  0  0
  4 13  2  0  0  0  0
  4 18  1  0  0  0  0
  5  6  3  0  0  0  0
  5  8  1  0  0  0  0
  6 15  1  0  0  0  0
  7 16  1  0  0  0  0
  7 17  2  0  0  0  0
  8 21  1  0  0  0  0
  8 22  1  0  0  0  0
  8 23  1  0  0  0  0
  9 12  1  0  0  0  0
  9 26  1  0  0  0  0
  9 27  1  0  0  0  0
 10 11  1  0  0  0  0
 10 28  1  0  0  0  0
 10 29  1  0  0  0  0
 11 30  1  0  0  0  0
 11 31  1  0  0  0  0
 12 32  1  0  0  0  0
 12 33  1  0  0  0  0
 15 19  2  0  0  0  0
 15 20  1  0  0  0  0
 16 20  2  0  0  0  0
 16 34  1  0  0  0  0
 17 19  1  0  0  0  0
 17 35  1  0  0  0  0
 18 24  1  0  0  0  0
 19 36  1  0  0  0  0
 20 37  1  0  0  0  0
 21 38  1  0  0  0  0
 22 39  1  0  0  0  0
 22 40  1  0  0  0  0
 22 41  1  0  0  0  0
 23 42  1  0  0  0  0
 23 43  1  0  0  0  0
 23 44  1  0  0  0  0
 24 25  1  0  0  0  0
 24 45  1  0  0  0  0
 24 46  1  0  0  0  0
 25 47  1  0  0  0  0
 25 48  1  0  0  0  0
 25 49  1  0  0  0  0
M  END
>  <$CLUSTER>
78

>  <INDEX>
53762

$$$$
Specs AK-968/37053096
 OpenBabel04062209303D

 37 39  0  0  1  0  0  0  0  0999 V2000
   -1.2020    0.7680    1.7300 N   0  0  0  0  0  0  0  0  0  0  0  0
   -1.8840    1.4150    2.7580 C   0  0  0  0  0  0  0  0  0  0  0  0
   -0.3850    0.4710   -0.2140 C   0  0  0  0  0  0  0  0  0  0  0  0
   -1.0630    1.3230    0.4930 N   0  0  0  0  0  0  0  0  0  0  0  0
   -0.6090   -0.4790    1.8800 C   0  0  0  0  0  0  0  0  0  0  0  0
    0.0050   -0.7730    0.5370 C   0  0  2  0  0  0  0  0  0  0  0  0
   -2.0590    0.9530    3.9780 N   0  0  0  0  0  0  0  0  0  0  0  0
   -2.5780    2.9560    2.4450 S   0  0  0  0  0  0  0  0  0  0  0  0
   -0.0170    0.6820   -1.6390 C   0  0  0  0  0  0  0  0  0  0  0  0
   -2.7830    1.8650    4.7190 C   0  0  0  0  0  0  0  0  0  0  0  0
   -3.1550    3.0140    4.0560 C   0  0  0  0  0  0  0  0  0  0  0  0
   -0.5690   -1.1840    2.8730 O   0  0  0  0  0  0  0  0  0  0  0  0
    1.4840   -0.9980    0.6060 C   0  0  0  0  0  0  0  0  0  0  0  0
    2.0220   -2.0630    0.1140 N   0  0  0  0  0  0  0  0  0  0  0  0
   -0.3510   -0.3850   -2.4090 F   0  0  0  0  0  0  0  0  0  0  0  0
   -0.6320    1.7630   -2.1800 F   0  0  0  0  0  0  0  0  0  0  0  0
    1.3180    0.8740   -1.7920 F   0  0  0  0  0  0  0  0  0  0  0  0
   -3.1610    1.7020    6.0800 C   0  0  0  0  0  0  0  0  0  0  0  0
   -3.9000    4.0370    4.6860 C   0  0  0  0  0  0  0  0  0  0  0  0
    3.4720   -2.1030    0.2760 C   0  0  0  0  0  0  0  0  0  0  0  0
    3.9860   -3.3930   -0.3380 C   0  0  0  0  0  0  0  0  0  0  0  0
   -3.8980    2.7070    6.7140 C   0  0  0  0  0  0  0  0  0  0  0  0
   -4.2610    3.8590    6.0240 C   0  0  0  0  0  0  0  0  0  0  0  0
    5.5150   -3.4940   -0.1870 C   0  0  0  0  0  0  0  0  0  0  0  0
   -0.3350   -1.6980    0.0710 H   0  0  0  0  0  0  0  0  0  0  0  0
    2.1120   -0.2560    1.0760 H   0  0  0  0  0  0  0  0  0  0  0  0
   -2.8810    0.8090    6.6200 H   0  0  0  0  0  0  0  0  0  0  0  0
   -4.1820    4.9300    4.1490 H   0  0  0  0  0  0  0  0  0  0  0  0
    3.7250   -2.0730    1.3360 H   0  0  0  0  0  0  0  0  0  0  0  0
    3.9230   -1.2490   -0.2300 H   0  0  0  0  0  0  0  0  0  0  0  0
    3.7290   -3.4130   -1.3970 H   0  0  0  0  0  0  0  0  0  0  0  0
    3.5200   -4.2400    0.1650 H   0  0  0  0  0  0  0  0  0  0  0  0
   -4.1880    2.5880    7.7480 H   0  0  0  0  0  0  0  0  0  0  0  0
   -4.8290    4.6260    6.5290 H   0  0  0  0  0  0  0  0  0  0  0  0
    5.9860   -2.6490   -0.6890 H   0  0  0  0  0  0  0  0  0  0  0  0
    5.8640   -4.4240   -0.6360 H   0  0  0  0  0  0  0  0  0  0  0  0
    5.7770   -3.4810    0.8710 H   0  0  0  0  0  0  0  0  0  0  0  0
  1  2  1  0  0  0  0
  1  4  1  0  0  0  0
  1  5  1  0  0  0  0
  2  7  2  0  0  0  0
  2  8  1  0  0  0  0
  3  4  2  0  0  0  0
  3  6  1  0  0  0  0
  3  9  1  0  0  0  0
  5  6  1  0  0  0  0
  5 12  2  0  0  0  0
  6 13  1  0  0  0  0
  6 25  1  6  0  0  0
  7 10  1  0  0  0  0
  8 11  1  0  0  0  0
  9 15  1  0  0  0  0
  9 16  1  0  0  0  0
  9 17  1  0  0  0  0
 10 11  2  0  0  0  0
 10 18  1  0  0  0  0
 11 19  1  0  0  0  0
 13 14  2  0  0  0  0
 13 26  1  0  0  0  0
 14 20  1  0  0  0  0
 18 22  2  0  0  0  0
 18 27  1  0  0  0  0
 19 23  2  0  0  0  0
 19 28  1  0  0  0  0
 20 21  1  0  0  0  0
 20 29  1  0  0  0  0
 20 30  1  0  0  0  0
 21 24  1  0  0  0  0
 21 31  1  0  0  0  0
 21 32  1  0  0  0  0
 22 23  1  0  0  0  0
 22 33  1  0  0  0  0
 23 34  1  0  0  0  0
 24 35  1  0  0  0  0
 24 36  1  0  0  0  0
 24 37  1  0  0  0  0
M  END
>  <$CLUSTER>
765

>  <INDEX>
503343

$$$$
InterBioScreen STOCK3S-07953
 OpenBabel04062209303D

 40 42  0  0  0  0  0  0  0  0999 V2000
   -1.9210   -0.4700    0.0410 N   0  0  0  0  0  0  0  0  0  0  0  0
    3.5750    0.4630   -0.8310 C   0  0  0  0  0  0  0  0  0  0  0  0
   -2.0200    0.1470    1.1970 C   0  0  0  0  0  0  0  0  0  0  0  0
    0.1070    0.3810    0.6370 C   0  0  0  0  0  0  0  0  0  0  0  0
    2.1220    0.2000   -0.6160 C   0  0  0  0  0  0  0  0  0  0  0  0
   -0.8250    0.6760    1.5980 N   0  0  0  0  0  0  0  0  0  0  0  0
    8.4840    1.0230    2.6460 C   0  0  0  0  0  0  0  0  0  0  0  0
    7.8040    1.0950    1.4030 C   0  0  0  0  0  0  0  0  0  0  0  0
   -0.6010   -0.3360   -0.3240 C   0  0  0  0  0  0  0  0  0  0  0  0
    1.4680    0.6690    0.5280 C   0  0  0  0  0  0  0  0  0  0  0  0
    5.7090    0.9150    0.2720 N   0  0  0  0  0  0  0  0  0  0  0  0
    9.8720    1.2490    2.6660 C   0  0  0  0  0  0  0  0  0  0  0  0
    4.3410    0.6610    0.2970 N   0  0  0  0  0  0  0  0  0  0  0  0
    4.0400    0.4830   -1.9680 O   0  0  0  0  0  0  0  0  0  0  0  0
    1.4380   -0.5220   -1.5970 C   0  0  0  0  0  0  0  0  0  0  0  0
    6.3250    0.8570    1.3600 C   0  0  0  0  0  0  0  0  0  0  0  0
    0.0710   -0.7990   -1.4670 C   0  0  0  0  0  0  0  0  0  0  0  0
    8.4990    1.3800    0.2390 C   0  0  0  0  0  0  0  0  0  0  0  0
   10.5590    1.5370    1.4840 C   0  0  0  0  0  0  0  0  0  0  0  0
    9.8750    1.6030    0.2720 C   0  0  0  0  0  0  0  0  0  0  0  0
    7.7260    0.7320    3.7760 O   0  0  0  0  0  0  0  0  0  0  0  0
   11.9140    1.7350    1.6540 O   0  0  0  0  0  0  0  0  0  0  0  0
    8.4220    0.6630    5.0270 C   0  0  0  0  0  0  0  0  0  0  0  0
   12.6680    2.0330    0.4840 C   0  0  0  0  0  0  0  0  0  0  0  0
   -2.9360    0.2270    1.7630 H   0  0  0  0  0  0  0  0  0  0  0  0
   -0.6580    1.1920    2.4500 H   0  0  0  0  0  0  0  0  0  0  0  0
    1.9910    1.2270    1.2900 H   0  0  0  0  0  0  0  0  0  0  0  0
   10.4100    1.2000    3.6010 H   0  0  0  0  0  0  0  0  0  0  0  0
    3.8820    0.6190    1.1960 H   0  0  0  0  0  0  0  0  0  0  0  0
    1.9710   -0.8720   -2.4690 H   0  0  0  0  0  0  0  0  0  0  0  0
    5.7890    0.6350    2.2710 H   0  0  0  0  0  0  0  0  0  0  0  0
   -0.4540   -1.3560   -2.2290 H   0  0  0  0  0  0  0  0  0  0  0  0
    7.9710    1.4300   -0.7020 H   0  0  0  0  0  0  0  0  0  0  0  0
   10.4090    1.8260   -0.6400 H   0  0  0  0  0  0  0  0  0  0  0  0
    7.7150    0.4290    5.8230 H   0  0  0  0  0  0  0  0  0  0  0  0
    8.8970    1.6230    5.2320 H   0  0  0  0  0  0  0  0  0  0  0  0
    9.1830   -0.1160    4.9770 H   0  0  0  0  0  0  0  0  0  0  0  0
   13.7160    2.1660    0.7510 H   0  0  0  0  0  0  0  0  0  0  0  0
   12.2890    2.9490    0.0310 H   0  0  0  0  0  0  0  0  0  0  0  0
   12.5760    1.2120   -0.2270 H   0  0  0  0  0  0  0  0  0  0  0  0
  1  3  2  0  0  0  0
  1  9  1  0  0  0  0
  2  5  1  0  0  0  0
  2 13  1  0  0  0  0
  2 14  2  0  0  0  0
  3  6  1  0  0  0  0
  3 25  1  0  0  0  0
  4  6  1  0  0  0  0
  4  9  1  0  0  0  0
  4 10  2  0  0  0  0
  5 10  1  0  0  0  0
  5 15  2  0  0  0  0
  6 26  1  0  0  0  0
  7  8  2  0  0  0  0
  7 12  1  0  0  0  0
  7 21  1  0  0  0  0
  8 16  1  0  0  0  0
  8 18  1  0  0  0  0
  9 17  2  0  0  0  0
 10 27  1  0  0  0  0
 11 13  1  0  0  0  0
 11 16  2  0  0  0  0
 12 19  2  0  0  0  0
 12 28  1  0  0  0  0
 13 29  1  0  0  0  0
 15 17  1  0  0  0  0
 15 30  1  0  0  0  0
 16 31  1  0  0  0  0
 17 32  1  0  0  0  0
 18 20  2  0  0  0  0
 18 33  1  0  0  0  0
 19 20  1  0  0  0  0
 19 22  1  0  0  0  0
 20 34  1  0  0  0  0
 21 23  1  0  0  0  0
 22 24  1  0  0  0  0
 23 35  1  0  0  0  0
 23 36  1  0  0  0  0
 23 37  1  0  0  0  0
 24 38  1  0  0  0  0
 24 39  1  0  0  0  0
 24 40  1  0  0  0  0
M  END
>  <$CLUSTER>
521

>  <INDEX>
341558

$$$$
Maybridge RJF 01152
 OpenBabel04062209303D

 37 38  0  0  0  0  0  0  0  0999 V2000
    2.1510   -1.4070    0.0110 C   0  0  0  0  0  0  0  0  0  0  0  0
    2.8930   -0.4810    0.6520 N   0  0  0  0  0  0  0  0  0  0  0  0
    0.7880   -1.0480   -0.2460 O   0  0  0  0  0  0  0  0  0  0  0  0
    4.1670   -0.8470    0.8770 C   0  0  0  0  0  0  0  0  0  0  0  0
    0.4010    0.1910    0.1910 C   0  0  0  0  0  0  0  0  0  0  0  0
    4.7300   -2.0200    0.5250 N   0  0  0  0  0  0  0  0  0  0  0  0
    2.5880   -2.6320   -0.4050 C   0  0  0  0  0  0  0  0  0  0  0  0
    3.9170   -2.8910   -0.1140 C   0  0  0  0  0  0  0  0  0  0  0  0
   -0.9390    0.4700   -0.0960 N   0  0  0  0  0  0  0  0  0  0  0  0
    5.0440    0.1370    1.5870 C   0  0  0  0  0  0  0  0  0  0  0  0
    1.1600    0.9640    0.7720 O   0  0  0  0  0  0  0  0  0  0  0  0
    6.3960   -0.1490    1.8720 C   0  0  0  0  0  0  0  0  0  0  0  0
    4.5490    1.3940    1.9980 C   0  0  0  0  0  0  0  0  0  0  0  0
    6.6940    2.0050    2.9270 C   0  0  0  0  0  0  0  0  0  0  0  0
    5.3640    2.3160    2.6590 C   0  0  0  0  0  0  0  0  0  0  0  0
    7.2110    0.7740    2.5340 C   0  0  0  0  0  0  0  0  0  0  0  0
    7.6750    3.1380    3.7350 Cl  0  0  0  0  0  0  0  0  0  0  0  0
    1.7200   -3.6250   -1.1150 C   0  0  0  0  0  0  0  0  0  0  0  0
    4.5140   -4.2070   -0.5200 C   0  0  0  0  0  0  0  0  0  0  0  0
   -1.5200    1.7450    0.2980 C   0  0  0  0  0  0  0  0  0  0  0  0
   -1.8310   -0.4560   -0.7860 C   0  0  0  0  0  0  0  0  0  0  0  0
    6.8100   -1.1010    1.5730 H   0  0  0  0  0  0  0  0  0  0  0  0
    3.5190    1.6480    1.7970 H   0  0  0  0  0  0  0  0  0  0  0  0
    4.9620    3.2710    2.9620 H   0  0  0  0  0  0  0  0  0  0  0  0
    8.2430    0.5320    2.7410 H   0  0  0  0  0  0  0  0  0  0  0  0
    0.7190   -3.2110   -1.2360 H   0  0  0  0  0  0  0  0  0  0  0  0
    1.6650   -4.5430   -0.5300 H   0  0  0  0  0  0  0  0  0  0  0  0
    2.1440   -3.8430   -2.0950 H   0  0  0  0  0  0  0  0  0  0  0  0
    5.5600   -4.2410   -0.2150 H   0  0  0  0  0  0  0  0  0  0  0  0
    4.4470   -4.3180   -1.6020 H   0  0  0  0  0  0  0  0  0  0  0  0
    3.9680   -5.0180   -0.0380 H   0  0  0  0  0  0  0  0  0  0  0  0
   -0.7650    2.3480    0.8010 H   0  0  0  0  0  0  0  0  0  0  0  0
   -2.3560    1.5700    0.9760 H   0  0  0  0  0  0  0  0  0  0  0  0
   -1.8750    2.2720   -0.5880 H   0  0  0  0  0  0  0  0  0  0  0  0
   -1.2890   -1.3700   -1.0300 H   0  0  0  0  0  0  0  0  0  0  0  0
   -2.1950    0.0060   -1.7040 H   0  0  0  0  0  0  0  0  0  0  0  0
   -2.6760   -0.6960   -0.1400 H   0  0  0  0  0  0  0  0  0  0  0  0
  1  2  1  0  0  0  0
  1  3  1  0  0  0  0
  1  7  2  0  0  0  0
  2  4  2  0  0  0  0
  3  5  1  0  0  0  0
  4  6  1  0  0  0  0
  4 10  1  0  0  0  0
  5  9  1  0  0  0  0
  5 11  2  0  0  0  0
  6  8  2  0  0  0  0
  7  8  1  0  0  0  0
  7 18  1  0  0  0  0
  8 19  1  0  0  0  0
  9 20  1  0  0  0  0
  9 21  1  0  0  0  0
 10 12  1  0  0  0  0
 10 13  2  0  0  0  0
 12 16  2  0  0  0  0
 12 22  1  0  0  0  0
 13 15  1  0  0  0  0
 13 23  1  0  0  0  0
 14 15  2  0  0  0  0
 14 16  1  0  0  0  0
 14 17  1  0  0  0  0
 15 24  1  0  0  0  0
 16 25  1  0  0  0  0
 18 26  1  0  0  0  0
 18 27  1  0  0  0  0
 18 28  1  0  0  0  0
 19 29  1  0  0  0  0
 19 30  1  0  0  0  0
 19 31  1  0  0  0  0
 20 32  1  0  0  0  0
 20 33  1  0  0  0  0
 20 34  1  0  0  0  0
 21 35  1  0  0  0  0
 21 36  1  0  0  0  0
 21 37  1  0  0  0  0
M  END
>  <$CLUSTER>
949

>  <INDEX>
619839

$$$$
Tripos 1518-03381
 OpenBabel04062209303D

 50 53  0  0  1  0  0  0  0  0999 V2000
   -0.0020   -1.2270   -0.7280 C   0  0  0  0  0  0  0  0  0  0  0  0
    1.6410   -1.5170   -2.6070 C   0  0  0  0  0  0  0  0  0  0  0  0
    0.2090   -0.0700    0.1200 C   0  0  0  0  0  0  0  0  0  0  0  0
    2.6700   -2.2540   -3.2200 N   0  0  0  0  0  0  0  0  0  0  0  0
   -2.3470   -0.3230   -0.1630 S   0  0  0  0  0  0  0  0  0  0  0  0
   -1.3460   -1.4540   -0.9460 C   0  0  0  0  0  0  0  0  0  0  0  0
    1.0910   -2.0820   -1.3060 C   0  0  0  0  0  0  0  0  0  0  0  0
   -1.0020    0.5180    0.5010 C   0  0  0  0  0  0  0  0  0  0  0  0
    1.6550   -3.5430   -5.2160 N   0  3  2  0  0  0  0  0  0  0  0  0
    1.4070    0.5230    0.5960 C   0  0  0  0  0  0  0  0  0  0  0  0
    1.1950   -0.4700   -3.0800 O   0  0  0  0  0  0  0  0  0  0  0  0
    3.2490   -1.7770   -4.4700 C   0  0  0  0  0  0  0  0  0  0  0  0
   -0.9190   -0.6140   -7.7410 N   0  0  0  0  0  0  0  0  0  0  0  0
    0.5230   -3.7580   -6.1630 C   0  0  0  0  0  0  0  0  0  0  0  0
   -1.0440    1.6600    1.3270 C   0  0  0  0  0  0  0  0  0  0  0  0
   -0.3410   -2.5280   -6.3730 C   0  0  0  0  0  0  0  0  0  0  0  0
    2.6870   -2.5400   -5.7080 C   0  0  0  0  0  0  0  0  0  0  0  0
    1.3700    1.6550    1.4150 C   0  0  0  0  0  0  0  0  0  0  0  0
    3.4450   -4.5860   -3.7720 C   0  0  0  0  0  0  0  0  0  0  0  0
    3.2370   -3.4980   -2.7060 C   0  0  0  0  0  0  0  0  0  0  0  0
    0.1550    2.2160    1.7760 C   0  0  0  0  0  0  0  0  0  0  0  0
    2.8360    2.3330    1.9620 Cl  0  0  0  0  0  0  0  0  0  0  0  0
    2.2330   -4.8300   -4.6800 C   0  0  0  0  0  0  0  0  0  0  0  0
   -0.1960   -1.7410   -7.5050 C   0  0  0  0  0  0  0  0  0  0  0  0
   -1.8140   -0.2560   -6.7860 C   0  0  0  0  0  0  0  0  0  0  0  0
   -1.2590   -2.1220   -5.4010 C   0  0  0  0  0  0  0  0  0  0  0  0
   -2.0150   -0.9710   -5.6140 C   0  0  0  0  0  0  0  0  0  0  0  0
   -1.7230   -2.2650   -1.5510 H   0  0  0  0  0  0  0  0  0  0  0  0
    0.6920   -3.0780   -1.4980 H   0  0  0  0  0  0  0  0  0  0  0  0
    1.9030   -2.1490   -0.5820 H   0  0  0  0  0  0  0  0  0  0  0  0
    1.2500   -3.0910   -4.4080 H   0  0  0  0  0  0  0  0  0  0  0  0
    2.3600    0.0940    0.3220 H   0  0  0  0  0  0  0  0  0  0  0  0
    4.3290   -1.9170   -4.4320 H   0  0  0  0  0  0  0  0  0  0  0  0
    3.0230   -0.7160   -4.5790 H   0  0  0  0  0  0  0  0  0  0  0  0
   -0.1060   -4.5570   -5.7710 H   0  0  0  0  0  0  0  0  0  0  0  0
    0.9340   -4.0580   -7.1270 H   0  0  0  0  0  0  0  0  0  0  0  0
   -1.9900    2.0980    1.6080 H   0  0  0  0  0  0  0  0  0  0  0  0
    2.2190   -1.8350   -6.3950 H   0  0  0  0  0  0  0  0  0  0  0  0
    3.4960   -3.0620   -6.2190 H   0  0  0  0  0  0  0  0  0  0  0  0
    3.6820   -5.5200   -3.2630 H   0  0  0  0  0  0  0  0  0  0  0  0
    4.2860   -4.2910   -4.3990 H   0  0  0  0  0  0  0  0  0  0  0  0
    2.5640   -3.8910   -1.9440 H   0  0  0  0  0  0  0  0  0  0  0  0
    4.2040   -3.2720   -2.2550 H   0  0  0  0  0  0  0  0  0  0  0  0
    0.1360    3.0900    2.4100 H   0  0  0  0  0  0  0  0  0  0  0  0
    2.5430   -5.4520   -5.5200 H   0  0  0  0  0  0  0  0  0  0  0  0
    1.4640   -5.3490   -4.1080 H   0  0  0  0  0  0  0  0  0  0  0  0
    0.5340   -2.0410   -8.2420 H   0  0  0  0  0  0  0  0  0  0  0  0
   -2.4030    0.6350   -6.9470 H   0  0  0  0  0  0  0  0  0  0  0  0
   -1.3810   -2.6950   -4.4940 H   0  0  0  0  0  0  0  0  0  0  0  0
   -2.7400   -0.6430   -4.8840 H   0  0  0  0  0  0  0  0  0  0  0  0
  1  3  1  0  0  0  0
  1  6  2  0  0  0  0
  1  7  1  0  0  0  0
  2  4  1  0  0  0  0
  2  7  1  0  0  0  0
  2 11  2  0  0  0  0
  3  8  2  0  0  0  0
  3 10  1  0  0  0  0
  4 12  1  0  0  0  0
  4 20  1  0  0  0  0
  5  6  1  0  0  0  0
  5  8  1  0  0  0  0
  6 28  1  0  0  0  0
  7 29  1  0  0  0  0
  7 30  1  0  0  0  0
  8 15  1  0  0  0  0
  9 14  1  0  0  0  0
  9 17  1  0  0  0  0
  9 23  1  0  0  0  0
  9 31  1  1  0  0  0
 10 18  2  0  0  0  0
 10 32  1  0  0  0  0
 12 17  1  0  0  0  0
 12 33  1  0  0  0  0
 12 34  1  0  0  0  0
 13 24  2  0  0  0  0
 13 25  1  0  0  0  0
 14 16  1  0  0  0  0
 14 35  1  0  0  0  0
 14 36  1  0  0  0  0
 15 21  2  0  0  0  0
 15 37  1  0  0  0  0
 16 24  1  0  0  0  0
 16 26  2  0  0  0  0
 17 38  1  0  0  0  0
 17 39  1  0  0  0  0
 18 21  1  0  0  0  0
 18 22  1  0  0  0  0
 19 20  1  0  0  0  0
 19 23  1  0  0  0  0
 19 40  1  0  0  0  0
 19 41  1  0  0  0  0
 20 42  1  0  0  0  0
 20 43  1  0  0  0  0
 21 44  1  0  0  0  0
 23 45  1  0  0  0  0
 23 46  1  0  0  0  0
 24 47  1  0  0  0  0
 25 27  2  0  0  0  0
 25 48  1  0  0  0  0
 26 27  1  0  0  0  0
 26 49  1  0  0  0  0
 27 50  1  0  0  0  0
M  CHG  1   9   1
M  END
>  <$CLUSTER>
674

>  <INDEX>
443046

$$$$
Specs AG-205/07903010
 OpenBabel04062209303D

 38 40  0  0  0  0  0  0  0  0999 V2000
    0.2990   -0.6230   -0.2970 N   0  3  0  0  0  0  0  0  0  0  0  0
    0.6710    3.0390    2.9640 C   0  0  0  0  0  0  0  0  0  0  0  0
    1.8580    2.4730    3.3450 O   0  0  0  0  0  0  0  0  0  0  0  0
    0.4420    4.1700    3.7260 C   0  0  0  0  0  0  0  0  0  0  0  0
   -0.2380    0.5920    0.3150 C   0  0  0  0  0  0  0  0  0  0  0  0
    2.3720    3.2410    4.3390 C   0  0  0  0  0  0  0  0  0  0  0  0
    5.9290    3.5700    7.4840 C   0  0  0  0  0  0  0  0  0  0  0  0
   -0.0570    2.3630    1.8930 C   0  0  0  0  0  0  0  0  0  0  0  0
    4.1940    3.5030    5.8490 N   0  0  0  0  0  0  0  0  0  0  0  0
    0.4710    1.1690    1.2920 C   0  0  0  0  0  0  0  0  0  0  0  0
    1.5390    4.2980    4.6120 C   0  0  0  0  0  0  0  0  0  0  0  0
    1.3820   -1.0670    0.1110 O   0  5  0  0  0  0  0  0  0  0  0  0
   -0.3690   -1.1450   -1.2000 O   0  0  0  0  0  0  0  0  0  0  0  0
    3.6290    2.8340    4.9000 C   0  0  0  0  0  0  0  0  0  0  0  0
    7.2400    2.9130    7.8280 C   0  0  0  0  0  0  0  0  0  0  0  0
    5.3760    2.9860    6.2720 N   0  0  0  0  0  0  0  0  0  0  0  0
    5.4460    4.4660    8.1240 O   0  0  0  0  0  0  0  0  0  0  0  0
    8.0970    2.3240    6.9380 C   0  0  0  0  0  0  0  0  0  0  0  0
    7.5980    3.0060    9.2050 C   0  0  0  0  0  0  0  0  0  0  0  0
    9.6600    1.8410    8.7220 C   0  0  0  0  0  0  0  0  0  0  0  0
    8.8070    2.4570    9.6360 C   0  0  0  0  0  0  0  0  0  0  0  0
    9.3060    1.7770    7.3760 C   0  0  0  0  0  0  0  0  0  0  0  0
   10.7930    1.3380    9.2120 F   0  0  0  0  0  0  0  0  0  0  0  0
   -1.5450    1.0740   -0.2200 C   0  0  0  0  0  0  0  0  0  0  0  0
   -1.2840    2.8730    1.4380 C   0  0  0  0  0  0  0  0  0  0  0  0
   -1.9910    2.2360    0.4140 C   0  0  0  0  0  0  0  0  0  0  0  0
   -0.4110    4.8300    3.6580 H   0  0  0  0  0  0  0  0  0  0  0  0
    1.4110    0.7500    1.6190 H   0  0  0  0  0  0  0  0  0  0  0  0
    1.6900    5.0700    5.3520 H   0  0  0  0  0  0  0  0  0  0  0  0
    4.1140    1.9470    4.5190 H   0  0  0  0  0  0  0  0  0  0  0  0
    5.8430    2.2410    5.7750 H   0  0  0  0  0  0  0  0  0  0  0  0
    7.8370    2.2820    5.8910 H   0  0  0  0  0  0  0  0  0  0  0  0
    6.9400    3.4960    9.9080 H   0  0  0  0  0  0  0  0  0  0  0  0
    9.0820    2.5100   10.6790 H   0  0  0  0  0  0  0  0  0  0  0  0
    9.9690    1.3020    6.6680 H   0  0  0  0  0  0  0  0  0  0  0  0
   -2.0870    0.5780   -1.0120 H   0  0  0  0  0  0  0  0  0  0  0  0
   -1.6870    3.7700    1.8850 H   0  0  0  0  0  0  0  0  0  0  0  0
   -2.9300    2.6640    0.0970 H   0  0  0  0  0  0  0  0  0  0  0  0
  1  5  1  0  0  0  0
  1 12  1  0  0  0  0
  1 13  2  0  0  0  0
  2  3  1  0  0  0  0
  2  4  2  0  0  0  0
  2  8  1  0  0  0  0
  3  6  1  0  0  0  0
  4 11  1  0  0  0  0
  4 27  1  0  0  0  0
  5 10  2  0  0  0  0
  5 24  1  0  0  0  0
  6 11  2  0  0  0  0
  6 14  1  0  0  0  0
  7 15  1  0  0  0  0
  7 16  1  0  0  0  0
  7 17  2  0  0  0  0
  8 10  1  0  0  0  0
  8 25  2  0  0  0  0
  9 14  2  0  0  0  0
  9 16  1  0  0  0  0
 10 28  1  0  0  0  0
 11 29  1  0  0  0  0
 14 30  1  0  0  0  0
 15 18  1  0  0  0  0
 15 19  2  0  0  0  0
 16 31  1  0  0  0  0
 18 22  2  0  0  0  0
 18 32  1  0  0  0  0
 19 21  1  0  0  0  0
 19 33  1  0  0  0  0
 20 21  2  0  0  0  0
 20 22  1  0  0  0  0
 20 23  1  0  0  0  0
 21 34  1  0  0  0  0
 22 35  1  0  0  0  0
 24 26  2  0  0  0  0
 24 36  1  0  0  0  0
 25 26  1  0  0  0  0
 25 37  1  0  0  0  0
 26 38  1  0  0  0  0
M  CHG  2   1   1  12  -1
M  END
>  <$CLUSTER>
940

>  <INDEX>
492692

$$$$
Asinex ASN 04479736
 OpenBabel04062209303D

 51 54  0  0  0  0  0  0  0  0999 V2000
   -1.3140    0.4740    0.3810 S   0  0  0  0  0  0  0  0  0  0  0  0
    0.1650   -0.1170   -0.2130 N   0  0  0  0  0  0  0  0  0  0  0  0
   -1.2430   -1.1090    6.1740 N   0  0  0  0  0  0  0  0  0  0  0  0
   -1.6980   -2.2710    6.6940 N   0  0  0  0  0  0  0  0  0  0  0  0
   -1.5010   -2.2060    8.0010 N   0  0  0  0  0  0  0  0  0  0  0  0
   -0.9250   -1.0190    8.3520 N   0  0  0  0  0  0  0  0  0  0  0  0
   -1.2780   -0.0280    2.0990 C   0  0  0  0  0  0  0  0  0  0  0  0
   -0.7700   -0.3560    7.2300 C   0  0  0  0  0  0  0  0  0  0  0  0
   -1.2760   -0.7830    4.7650 C   0  0  0  0  0  0  0  0  0  0  0  0
    0.2440   -1.5410   -0.5970 C   0  0  0  0  0  0  0  0  0  0  0  0
   -1.7890   -1.6480    3.7970 C   0  0  0  0  0  0  0  0  0  0  0  0
   -1.7930   -1.2710    2.4530 C   0  0  0  0  0  0  0  0  0  0  0  0
   -1.2790    1.9250    0.3260 O   0  0  0  0  0  0  0  0  0  0  0  0
   -2.3890   -0.2470   -0.2790 O   0  0  0  0  0  0  0  0  0  0  0  0
   -0.0580   -1.6970   -2.0790 C   0  0  0  0  0  0  0  0  0  0  0  0
   -0.7670    0.4630    4.3940 C   0  0  0  0  0  0  0  0  0  0  0  0
    1.0080   -1.5990   -2.9080 O   0  0  0  0  0  0  0  0  0  0  0  0
   -0.7680    0.8470    3.0520 C   0  0  0  0  0  0  0  0  0  0  0  0
    1.4230    0.5810    0.1670 C   0  0  0  0  0  0  0  0  0  0  0  0
   -1.2120   -1.9320   -2.7660 C   0  0  0  0  0  0  0  0  0  0  0  0
    0.5200   -1.7750   -4.1640 C   0  0  0  0  0  0  0  0  0  0  0  0
   -0.8390   -1.9830   -4.1300 C   0  0  0  0  0  0  0  0  0  0  0  0
   -2.3720   -3.0310    4.0830 C   0  0  0  0  0  0  0  0  0  0  0  0
    2.2880    0.7890   -1.0740 C   0  0  0  0  0  0  0  0  0  0  0  0
    2.1960   -0.1390    1.2690 C   0  0  0  0  0  0  0  0  0  0  0  0
    3.6100    1.4770   -0.7370 C   0  0  0  0  0  0  0  0  0  0  0  0
    3.4900    0.5370    1.6040 C   0  0  0  0  0  0  0  0  0  0  0  0
    4.3600    0.7380    0.3670 C   0  0  0  0  0  0  0  0  0  0  0  0
   -0.3380    0.6300    7.1460 H   0  0  0  0  0  0  0  0  0  0  0  0
   -0.4820   -2.1120   -0.0180 H   0  0  0  0  0  0  0  0  0  0  0  0
    1.2470   -1.9150   -0.3920 H   0  0  0  0  0  0  0  0  0  0  0  0
   -2.1900   -1.9340    1.6990 H   0  0  0  0  0  0  0  0  0  0  0  0
   -0.3720    1.1300    5.1460 H   0  0  0  0  0  0  0  0  0  0  0  0
   -0.3780    1.8100    2.7580 H   0  0  0  0  0  0  0  0  0  0  0  0
    1.1490    1.5500    0.5840 H   0  0  0  0  0  0  0  0  0  0  0  0
   -2.2030   -2.0540   -2.3550 H   0  0  0  0  0  0  0  0  0  0  0  0
    1.1170   -1.7540   -5.0640 H   0  0  0  0  0  0  0  0  0  0  0  0
   -1.4910   -2.1510   -4.9750 H   0  0  0  0  0  0  0  0  0  0  0  0
   -2.3240   -3.2310    5.1530 H   0  0  0  0  0  0  0  0  0  0  0  0
   -1.7970   -3.7860    3.5460 H   0  0  0  0  0  0  0  0  0  0  0  0
   -3.4110   -3.0630    3.7540 H   0  0  0  0  0  0  0  0  0  0  0  0
    1.7410    1.4070   -1.7860 H   0  0  0  0  0  0  0  0  0  0  0  0
    2.5000   -0.1810   -1.5230 H   0  0  0  0  0  0  0  0  0  0  0  0
    2.4090   -1.1560    0.9380 H   0  0  0  0  0  0  0  0  0  0  0  0
    1.5770   -0.1710    2.1660 H   0  0  0  0  0  0  0  0  0  0  0  0
    3.4050    2.4950   -0.4060 H   0  0  0  0  0  0  0  0  0  0  0  0
    4.2330    1.5040   -1.6310 H   0  0  0  0  0  0  0  0  0  0  0  0
    4.0340   -0.0770    2.3220 H   0  0  0  0  0  0  0  0  0  0  0  0
    3.2760    1.5100    2.0470 H   0  0  0  0  0  0  0  0  0  0  0  0
    5.2400    1.3180    0.6450 H   0  0  0  0  0  0  0  0  0  0  0  0
    4.6700   -0.2370   -0.0090 H   0  0  0  0  0  0  0  0  0  0  0  0
  1  2  1  0  0  0  0
  1  7  1  0  0  0  0
  1 13  2  0  0  0  0
  1 14  2  0  0  0  0
  2 10  1  0  0  0  0
  2 19  1  0  0  0  0
  3  4  1  0  0  0  0
  3  8  1  0  0  0  0
  3  9  1  0  0  0  0
  4  5  2  0  0  0  0
  5  6  1  0  0  0  0
  6  8  2  0  0  0  0
  7 12  2  0  0  0  0
  7 18  1  0  0  0  0
  8 29  1  0  0  0  0
  9 11  2  0  0  0  0
  9 16  1  0  0  0  0
 10 15  1  0  0  0  0
 10 30  1  0  0  0  0
 10 31  1  0  0  0  0
 11 12  1  0  0  0  0
 11 23  1  0  0  0  0
 12 32  1  0  0  0  0
 15 17  1  0  0  0  0
 15 20  2  0  0  0  0
 16 18  2  0  0  0  0
 16 33  1  0  0  0  0
 17 21  1  0  0  0  0
 18 34  1  0  0  0  0
 19 24  1  0  0  0  0
 19 25  1  0  0  0  0
 19 35  1  0  0  0  0
 20 22  1  0  0  0  0
 20 36  1  0  0  0  0
 21 22  2  0  0  0  0
 21 37  1  0  0  0  0
 22 38  1  0  0  0  0
 23 39  1  0  0  0  0
 23 40  1  0  0  0  0
 23 41  1  0  0  0  0
 24 26  1  0  0  0  0
 24 42  1  0  0  0  0
 24 43  1  0  0  0  0
 25 27  1  0  0  0  0
 25 44  1  0  0  0  0
 25 45  1  0  0  0  0
 26 28  1  0  0  0  0
 26 46  1  0  0  0  0
 26 47  1  0  0  0  0
 27 28  1  0  0  0  0
 27 48  1  0  0  0  0
 27 49  1  0  0  0  0
 28 50  1  0  0  0  0
 28 51  1  0  0  0  0
M  END
>  <$CLUSTER>
216

>  <INDEX>
140148

$$$$
Asinex ASN 05110337
 OpenBabel04062209303D

 51 55  0  0  0  0  0  0  0  0999 V2000
   -1.6600    1.2410    1.4910 C   0  0  0  0  0  0  0  0  0  0  0  0
   -2.5070    2.4880    1.6330 C   0  0  0  0  0  0  0  0  0  0  0  0
   -3.1540    2.6430    2.8370 N   0  0  0  0  0  0  0  0  0  0  0  0
   -0.1810   -0.1080    0.0310 N   0  0  0  0  0  0  0  0  0  0  0  0
   -1.6050    0.4050    2.5270 C   0  0  0  0  0  0  0  0  0  0  0  0
   -3.0690    1.7530    3.8750 C   0  0  0  0  0  0  0  0  0  0  0  0
    1.1870   -0.1980    0.2990 C   0  0  0  0  0  0  0  0  0  0  0  0
   -2.3210    0.6500    3.7580 C   0  0  0  0  0  0  0  0  0  0  0  0
   -0.9710    1.1270    0.1400 C   0  0  0  0  0  0  0  0  0  0  0  0
   -3.7830    2.0080    5.0880 C   0  0  0  0  0  0  0  0  0  0  0  0
   -3.6920    1.0980    6.1400 C   0  0  0  0  0  0  0  0  0  0  0  0
   -2.9090   -0.0500    6.0080 C   0  0  0  0  0  0  0  0  0  0  0  0
   -2.2140   -0.2960    4.8220 C   0  0  0  0  0  0  0  0  0  0  0  0
   -0.9040   -1.4580   -1.9090 C   0  0  0  0  0  0  0  0  0  0  0  0
   -0.8980   -1.3140   -0.3950 C   0  0  0  0  0  0  0  0  0  0  0  0
    1.8770    1.0660    0.7510 C   0  0  0  0  0  0  0  0  0  0  0  0
    0.1550   -2.1130   -2.4340 O   0  0  0  0  0  0  0  0  0  0  0  0
   -2.6060    3.3080    0.7230 O   0  0  0  0  0  0  0  0  0  0  0  0
    1.8450   -1.2350    0.1760 O   0  0  0  0  0  0  0  0  0  0  0  0
   -4.3810    1.4230    7.2960 O   0  0  0  0  0  0  0  0  0  0  0  0
   -2.7950   -1.0140    6.9940 O   0  0  0  0  0  0  0  0  0  0  0  0
   -1.7640   -1.0250   -2.8690 C   0  0  0  0  0  0  0  0  0  0  0  0
   -0.0420   -2.1140   -3.7780 C   0  0  0  0  0  0  0  0  0  0  0  0
   -1.2070   -1.4570   -4.0960 C   0  0  0  0  0  0  0  0  0  0  0  0
    3.0280    0.9340    1.5110 C   0  0  0  0  0  0  0  0  0  0  0  0
    1.3780    2.3190    0.4110 C   0  0  0  0  0  0  0  0  0  0  0  0
    3.2060    3.3420    1.6230 C   0  0  0  0  0  0  0  0  0  0  0  0
    2.0510    3.4620    0.8520 C   0  0  0  0  0  0  0  0  0  0  0  0
    3.6950    2.0790    1.9500 C   0  0  0  0  0  0  0  0  0  0  0  0
    3.7820    4.4830    2.0050 F   0  0  0  0  0  0  0  0  0  0  0  0
   -3.9350    0.6210    8.4040 C   0  0  0  0  0  0  0  0  0  0  0  0
   -3.8100   -0.8430    8.0000 C   0  0  0  0  0  0  0  0  0  0  0  0
   -3.7280    3.4650    2.9640 H   0  0  0  0  0  0  0  0  0  0  0  0
   -1.0030   -0.4880    2.4440 H   0  0  0  0  0  0  0  0  0  0  0  0
   -0.3080    1.9820    0.0090 H   0  0  0  0  0  0  0  0  0  0  0  0
   -1.7290    1.1310   -0.6440 H   0  0  0  0  0  0  0  0  0  0  0  0
   -4.3870    2.8980    5.1880 H   0  0  0  0  0  0  0  0  0  0  0  0
   -1.6080   -1.1830    4.7120 H   0  0  0  0  0  0  0  0  0  0  0  0
   -1.9270   -1.2570   -0.0410 H   0  0  0  0  0  0  0  0  0  0  0  0
   -0.4120   -2.1870    0.0410 H   0  0  0  0  0  0  0  0  0  0  0  0
   -2.6790   -0.4690   -2.7250 H   0  0  0  0  0  0  0  0  0  0  0  0
    0.6240   -2.5680   -4.4970 H   0  0  0  0  0  0  0  0  0  0  0  0
   -1.6150   -1.3020   -5.0840 H   0  0  0  0  0  0  0  0  0  0  0  0
    3.4060   -0.0460    1.7620 H   0  0  0  0  0  0  0  0  0  0  0  0
    0.4820    2.4080   -0.1860 H   0  0  0  0  0  0  0  0  0  0  0  0
    1.6750    4.4410    0.5950 H   0  0  0  0  0  0  0  0  0  0  0  0
    4.5920    1.9860    2.5440 H   0  0  0  0  0  0  0  0  0  0  0  0
   -4.6540    0.7060    9.2190 H   0  0  0  0  0  0  0  0  0  0  0  0
   -2.9630    0.9830    8.7380 H   0  0  0  0  0  0  0  0  0  0  0  0
   -3.5460   -1.4340    8.8770 H   0  0  0  0  0  0  0  0  0  0  0  0
   -4.7660   -1.1870    7.6050 H   0  0  0  0  0  0  0  0  0  0  0  0
  1  2  1  0  0  0  0
  1  5  2  0  0  0  0
  1  9  1  0  0  0  0
  2  3  1  0  0  0  0
  2 18  2  0  0  0  0
  3  6  1  0  0  0  0
  3 33  1  0  0  0  0
  4  7  1  0  0  0  0
  4  9  1  0  0  0  0
  4 15  1  0  0  0  0
  5  8  1  0  0  0  0
  5 34  1  0  0  0  0
  6  8  1  0  0  0  0
  6 10  2  0  0  0  0
  7 16  1  0  0  0  0
  7 19  2  0  0  0  0
  8 13  2  0  0  0  0
  9 35  1  0  0  0  0
  9 36  1  0  0  0  0
 10 11  1  0  0  0  0
 10 37  1  0  0  0  0
 11 12  2  0  0  0  0
 11 20  1  0  0  0  0
 12 13  1  0  0  0  0
 12 21  1  0  0  0  0
 13 38  1  0  0  0  0
 14 15  1  0  0  0  0
 14 17  1  0  0  0  0
 14 22  2  0  0  0  0
 15 39  1  0  0  0  0
 15 40  1  0  0  0  0
 16 25  1  0  0  0  0
 16 26  2  0  0  0  0
 17 23  1  0  0  0  0
 20 31  1  0  0  0  0
 21 32  1  0  0  0  0
 22 24  1  0  0  0  0
 22 41  1  0  0  0  0
 23 24  2  0  0  0  0
 23 42  1  0  0  0  0
 24 43  1  0  0  0  0
 25 29  2  0  0  0  0
 25 44  1  0  0  0  0
 26 28  1  0  0  0  0
 26 45  1  0  0  0  0
 27 28  2  0  0  0  0
 27 29  1  0  0  0  0
 27 30  1  0  0  0  0
 28 46  1  0  0  0  0
 29 47  1  0  0  0  0
 31 32  1  0  0  0  0
 31 48  1  0  0  0  0
 31 49  1  0  0  0  0
 32 50  1  0  0  0  0
 32 51  1  0  0  0  0
M  END
>  <$CLUSTER>
225

>  <INDEX>
143704

$$$$
Chem T&I AMCLME-05084
 OpenBabel04062209303D

 45 47  0  0  0  0  0  0  0  0999 V2000
   -1.0040    0.8330    0.0570 C   0  0  0  0  0  0  0  0  0  0  0  0
    2.4760   -2.9860   -1.1660 C   0  0  0  0  0  0  0  0  0  0  0  0
    1.0300   -1.2640   -0.0600 N   0  3  0  0  0  0  0  0  0  0  0  0
   -0.7350    0.0280   -1.2180 C   0  0  0  0  0  0  0  0  0  0  0  0
   -0.5910    0.0280    1.2940 C   0  0  0  0  0  0  0  0  0  0  0  0
    3.7160   -3.5450   -1.2460 N   0  0  0  0  0  0  0  0  0  0  0  0
   -0.2600    2.0480    0.0370 O   0  0  0  0  0  0  0  0  0  0  0  0
   -2.3970    1.1260    0.1170 O   0  0  0  0  0  0  0  0  0  0  0  0
    2.4040   -1.8730   -0.1380 C   0  0  0  0  0  0  0  0  0  0  0  0
    1.5080   -3.3280   -1.8410 O   0  0  0  0  0  0  0  0  0  0  0  0
    0.7050   -0.4620   -1.2970 C   0  0  0  0  0  0  0  0  0  0  0  0
    0.8480   -0.4630    1.2080 C   0  0  0  0  0  0  0  0  0  0  0  0
    4.1960   -4.5940   -2.0650 C   0  0  0  0  0  0  0  0  0  0  0  0
    5.2610   -6.6630   -3.6390 C   0  0  0  0  0  0  0  0  0  0  0  0
    3.3920   -5.2640   -2.9910 C   0  0  0  0  0  0  0  0  0  0  0  0
    5.5410   -4.9730   -1.9380 C   0  0  0  0  0  0  0  0  0  0  0  0
    6.0700   -6.0020   -2.7200 C   0  0  0  0  0  0  0  0  0  0  0  0
    3.9250   -6.2940   -3.7740 C   0  0  0  0  0  0  0  0  0  0  0  0
    5.8910   -7.6550   -4.3500 O   0  0  0  0  0  0  0  0  0  0  0  0
   -1.1930    3.0630    0.3650 C   0  0  0  0  0  0  0  0  0  0  0  0
   -2.4960    2.5170   -0.1520 C   0  0  0  0  0  0  0  0  0  0  0  0
    5.1080   -8.3630   -5.3040 C   0  0  0  0  0  0  0  0  0  0  0  0
    0.3640   -2.0220   -0.0230 H   0  0  0  0  0  0  0  0  0  0  0  0
   -0.9380    0.6610   -2.0820 H   0  0  0  0  0  0  0  0  0  0  0  0
   -1.4010   -0.8350   -1.2350 H   0  0  0  0  0  0  0  0  0  0  0  0
   -1.2510   -0.8340    1.3880 H   0  0  0  0  0  0  0  0  0  0  0  0
   -0.6940    0.6610    2.1750 H   0  0  0  0  0  0  0  0  0  0  0  0
    4.4020   -3.1470   -0.6210 H   0  0  0  0  0  0  0  0  0  0  0  0
    3.1180   -1.0960   -0.4100 H   0  0  0  0  0  0  0  0  0  0  0  0
    2.6650   -2.2790    0.8390 H   0  0  0  0  0  0  0  0  0  0  0  0
    0.8280   -1.0890   -2.1800 H   0  0  0  0  0  0  0  0  0  0  0  0
    1.3770    0.3940   -1.3630 H   0  0  0  0  0  0  0  0  0  0  0  0
    1.5240    0.3920    1.1980 H   0  0  0  0  0  0  0  0  0  0  0  0
    1.0700   -1.0920    2.0700 H   0  0  0  0  0  0  0  0  0  0  0  0
    2.3550   -4.9860   -3.1030 H   0  0  0  0  0  0  0  0  0  0  0  0
    6.1740   -4.4630   -1.2270 H   0  0  0  0  0  0  0  0  0  0  0  0
    7.1070   -6.2850   -2.6110 H   0  0  0  0  0  0  0  0  0  0  0  0
    3.2960   -6.8060   -4.4870 H   0  0  0  0  0  0  0  0  0  0  0  0
   -0.9390    4.0010   -0.1290 H   0  0  0  0  0  0  0  0  0  0  0  0
   -1.2360    3.2200    1.4430 H   0  0  0  0  0  0  0  0  0  0  0  0
   -3.3410    2.9580    0.3770 H   0  0  0  0  0  0  0  0  0  0  0  0
   -2.6000    2.7020   -1.2210 H   0  0  0  0  0  0  0  0  0  0  0  0
    5.7250   -9.1160   -5.7940 H   0  0  0  0  0  0  0  0  0  0  0  0
    4.7260   -7.6660   -6.0500 H   0  0  0  0  0  0  0  0  0  0  0  0
    4.2730   -8.8490   -4.8000 H   0  0  0  0  0  0  0  0  0  0  0  0
  1  4  1  0  0  0  0
  1  5  1  0  0  0  0
  1  7  1  0  0  0  0
  1  8  1  0  0  0  0
  2  6  1  0  0  0  0
  2  9  1  0  0  0  0
  2 10  2  0  0  0  0
  3  9  1  0  0  0  0
  3 11  1  0  0  0  0
  3 12  1  0  0  0  0
  3 23  1  0  0  0  0
  4 11  1  0  0  0  0
  4 24  1  0  0  0  0
  4 25  1  0  0  0  0
  5 12  1  0  0  0  0
  5 26  1  0  0  0  0
  5 27  1  0  0  0  0
  6 13  1  0  0  0  0
  6 28  1  0  0  0  0
  7 20  1  0  0  0  0
  8 21  1  0  0  0  0
  9 29  1  0  0  0  0
  9 30  1  0  0  0  0
 11 31  1  0  0  0  0
 11 32  1  0  0  0  0
 12 33  1  0  0  0  0
 12 34  1  0  0  0  0
 13 15  1  0  0  0  0
 13 16  2  0  0  0  0
 14 17  2  0  0  0  0
 14 18  1  0  0  0  0
 14 19  1  0  0  0  0
 15 18  2  0  0  0  0
 15 35  1  0  0  0  0
 16 17  1  0  0  0  0
 16 36  1  0  0  0  0
 17 37  1  0  0  0  0
 18 38  1  0  0  0  0
 19 22  1  0  0  0  0
 20 21  1  0  0  0  0
 20 39  1  0  0  0  0
 20 40  1  0  0  0  0
 21 41  1  0  0  0  0
 21 42  1  0  0  0  0
 22 43  1  0  0  0  0
 22 44  1  0  0  0  0
 22 45  1  0  0  0  0
M  CHG  1   3   1
M  END
>  <$CLUSTER>
777

>  <INDEX>
508469

$$$$
Bionet 10W-0283
 OpenBabel04062209303D

 36 37  0  0  0  0  0  0  0  0999 V2000
   -0.2140   -0.6230   -0.6780 N   0  0  0  0  0  0  0  0  0  0  0  0
   -0.4680    0.1930   -2.1730 S   0  0  0  0  0  0  0  0  0  0  0  0
   -1.2140   -0.5160    0.0830 N   0  0  0  0  0  0  0  0  0  0  0  0
    0.9120   -0.1380    0.0870 C   0  0  0  0  0  0  0  0  0  0  0  0
    0.5330    0.1490    1.3400 C   0  0  0  0  0  0  0  0  0  0  0  0
   -0.9150   -0.0720    1.3390 C   0  0  0  0  0  0  0  0  0  0  0  0
   -1.8200   -0.7450   -2.8590 C   0  0  0  0  0  0  0  0  0  0  0  0
   -0.9450    1.5420   -1.9310 O   0  0  0  0  0  0  0  0  0  0  0  0
    0.6660   -0.0420   -3.0490 O   0  0  0  0  0  0  0  0  0  0  0  0
   -1.6650    0.1140    2.2840 O   0  0  0  0  0  0  0  0  0  0  0  0
   -1.5820   -1.8680   -3.6560 C   0  0  0  0  0  0  0  0  0  0  0  0
   -3.1480   -0.3250   -2.6250 C   0  0  0  0  0  0  0  0  0  0  0  0
    1.2900    0.6620    2.5090 C   0  0  0  0  0  0  0  0  0  0  0  0
    2.2840   -0.0940   -0.4870 C   0  0  0  0  0  0  0  0  0  0  0  0
   -4.2110   -1.0390   -3.1820 C   0  0  0  0  0  0  0  0  0  0  0  0
   -2.6490   -2.5760   -4.2090 C   0  0  0  0  0  0  0  0  0  0  0  0
   -3.9610   -2.1620   -3.9720 C   0  0  0  0  0  0  0  0  0  0  0  0
    2.2890    0.1220    4.6300 O   0  0  0  0  0  0  0  0  0  0  0  0
    1.5580   -0.4290    3.5350 C   0  0  0  0  0  0  0  0  0  0  0  0
   -5.1000   -2.9260   -4.5680 C   0  0  0  0  0  0  0  0  0  0  0  0
   -2.1540   -0.7390   -0.2110 H   0  0  0  0  0  0  0  0  0  0  0  0
   -0.5680   -2.1890   -3.8440 H   0  0  0  0  0  0  0  0  0  0  0  0
   -3.3410    0.5460   -2.0170 H   0  0  0  0  0  0  0  0  0  0  0  0
    0.7120    1.4560    2.9820 H   0  0  0  0  0  0  0  0  0  0  0  0
    2.2430    1.0620    2.1630 H   0  0  0  0  0  0  0  0  0  0  0  0
    2.2480   -0.3860   -1.5370 H   0  0  0  0  0  0  0  0  0  0  0  0
    2.9290   -0.7820    0.0600 H   0  0  0  0  0  0  0  0  0  0  0  0
    2.6800    0.9180   -0.4050 H   0  0  0  0  0  0  0  0  0  0  0  0
   -5.2270   -0.7220   -3.0010 H   0  0  0  0  0  0  0  0  0  0  0  0
   -2.4600   -3.4450   -4.8210 H   0  0  0  0  0  0  0  0  0  0  0  0
    2.4440   -0.5850    5.2610 H   0  0  0  0  0  0  0  0  0  0  0  0
    2.1400   -1.2270    3.0740 H   0  0  0  0  0  0  0  0  0  0  0  0
    0.6110   -0.8310    3.8950 H   0  0  0  0  0  0  0  0  0  0  0  0
   -6.0420   -2.4600   -4.2770 H   0  0  0  0  0  0  0  0  0  0  0  0
   -5.0770   -3.9540   -4.2070 H   0  0  0  0  0  0  0  0  0  0  0  0
   -5.0120   -2.9210   -5.6540 H   0  0  0  0  0  0  0  0  0  0  0  0
  1  2  1  0  0  0  0
  1  3  1  0  0  0  0
  1  4  1  0  0  0  0
  2  7  1  0  0  0  0
  2  8  2  0  0  0  0
  2  9  2  0  0  0  0
  3  6  1  0  0  0  0
  3 21  1  0  0  0  0
  4  5  2  0  0  0  0
  4 14  1  0  0  0  0
  5  6  1  0  0  0  0
  5 13  1  0  0  0  0
  6 10  2  0  0  0  0
  7 11  1  0  0  0  0
  7 12  2  0  0  0  0
 11 16  2  0  0  0  0
 11 22  1  0  0  0  0
 12 15  1  0  0  0  0
 12 23  1  0  0  0  0
 13 19  1  0  0  0  0
 13 24  1  0  0  0  0
 13 25  1  0  0  0  0
 14 26  1  0  0  0  0
 14 27  1  0  0  0  0
 14 28  1  0  0  0  0
 15 17  2  0  0  0  0
 15 29  1  0  0  0  0
 16 17  1  0  0  0  0
 16 30  1  0  0  0  0
 17 20  1  0  0  0  0
 18 19  1  0  0  0  0
 18 31  1  0  0  0  0
 19 32  1  0  0  0  0
 19 33  1  0  0  0  0
 20 34  1  0  0  0  0
 20 35  1  0  0  0  0
 20 36  1  0  0  0  0
M  END
>  <$CLUSTER>
107

>  <INDEX>
8117

$$$$
ASDI 100018405
 OpenBabel04062209303D

 31 32  0  0  0  0  0  0  0  0999 V2000
    2.7210   -2.0220   -0.6460 S   0  0  0  0  0  0  0  0  0  0  0  0
    1.2690   -1.6470    0.1860 N   0  0  0  0  0  0  0  0  0  0  0  0
    0.0960   -1.3580   -0.5980 C   0  0  0  0  0  0  0  0  0  0  0  0
   -0.4290   -0.0590   -0.6150 C   0  0  0  0  0  0  0  0  0  0  0  0
   -1.5390    0.2420   -1.4110 C   0  0  0  0  0  0  0  0  0  0  0  0
    0.2220    0.9220    0.1030 O   0  0  0  0  0  0  0  0  0  0  0  0
    3.7200   -2.3840    0.3410 O   0  0  0  0  0  0  0  0  0  0  0  0
    2.4630   -2.8800   -1.7840 O   0  0  0  0  0  0  0  0  0  0  0  0
   -0.5180   -2.3620   -1.3510 C   0  0  0  0  0  0  0  0  0  0  0  0
   -2.1460   -0.7650   -2.1610 C   0  0  0  0  0  0  0  0  0  0  0  0
    3.1640   -0.4130   -1.2630 C   0  0  0  0  0  0  0  0  0  0  0  0
   -0.5360    1.6610    0.9840 C   0  0  0  0  0  0  0  0  0  0  0  0
   -1.6390   -2.0650   -2.1270 C   0  0  0  0  0  0  0  0  0  0  0  0
   -3.5070   -0.3940   -3.1150 Cl  0  0  0  0  0  0  0  0  0  0  0  0
   -0.2900    3.0350    1.0260 C   0  0  0  0  0  0  0  0  0  0  0  0
   -1.4610    1.0860    1.8610 C   0  0  0  0  0  0  0  0  0  0  0  0
   -0.9960    3.8400    1.9200 C   0  0  0  0  0  0  0  0  0  0  0  0
   -2.1650    1.8960    2.7530 C   0  0  0  0  0  0  0  0  0  0  0  0
   -1.9360    3.2720    2.7810 C   0  0  0  0  0  0  0  0  0  0  0  0
    1.2370   -1.6290    1.1950 H   0  0  0  0  0  0  0  0  0  0  0  0
   -1.9250    1.2500   -1.4450 H   0  0  0  0  0  0  0  0  0  0  0  0
   -0.1250   -3.3680   -1.3320 H   0  0  0  0  0  0  0  0  0  0  0  0
    3.3640    0.2550   -0.4250 H   0  0  0  0  0  0  0  0  0  0  0  0
    2.3430   -0.0130   -1.8580 H   0  0  0  0  0  0  0  0  0  0  0  0
    4.0560   -0.4950   -1.8840 H   0  0  0  0  0  0  0  0  0  0  0  0
   -2.1160   -2.8440   -2.7030 H   0  0  0  0  0  0  0  0  0  0  0  0
    0.4450    3.4730    0.3680 H   0  0  0  0  0  0  0  0  0  0  0  0
   -1.6300    0.0190    1.8480 H   0  0  0  0  0  0  0  0  0  0  0  0
   -0.8150    4.9040    1.9460 H   0  0  0  0  0  0  0  0  0  0  0  0
   -2.8890    1.4570    3.4230 H   0  0  0  0  0  0  0  0  0  0  0  0
   -2.4860    3.8970    3.4690 H   0  0  0  0  0  0  0  0  0  0  0  0
  1  2  1  0  0  0  0
  1  7  2  0  0  0  0
  1  8  2  0  0  0  0
  1 11  1  0  0  0  0
  2  3  1  0  0  0  0
  2 20  1  0  0  0  0
  3  4  2  0  0  0  0
  3  9  1  0  0  0  0
  4  5  1  0  0  0  0
  4  6  1  0  0  0  0
  5 10  2  0  0  0  0
  5 21  1  0  0  0  0
  6 12  1  0  0  0  0
  9 13  2  0  0  0  0
  9 22  1  0  0  0  0
 10 13  1  0  0  0  0
 10 14  1  0  0  0  0
 11 23  1  0  0  0  0
 11 24  1  0  0  0  0
 11 25  1  0  0  0  0
 12 15  2  0  0  0  0
 12 16  1  0  0  0  0
 13 26  1  0  0  0  0
 15 17  1  0  0  0  0
 15 27  1  0  0  0  0
 16 18  2  0  0  0  0
 16 28  1  0  0  0  0
 17 19  2  0  0  0  0
 17 29  1  0  0  0  0
 18 19  1  0  0  0  0
 18 30  1  0  0  0  0
 19 31  1  0  0  0  0
M  END
>  <$CLUSTER>
839

>  <INDEX>
3627

$$$$
