Schrodinger_fragment_72_a
 OpenBabel04062209313D
Schrodinger Suite 2020-2.
 26 26  0  0  1  0  0  0  0  0999 V2000
    5.6422   -6.0329    0.7591 C   0  0  0  0  0  0  0  0  0  0  0  0
    5.5271   -7.5089    0.7115 N   0  0  0  0  0  0  0  0  0  0  0  0
    6.8042   -8.1694    1.0593 C   0  0  0  0  0  0  0  0  0  0  0  0
    7.9419   -7.6744    0.1455 C   0  0  0  0  0  0  0  0  0  0  0  0
    6.8072   -5.5262   -0.1198 C   0  0  0  0  0  0  0  0  0  0  0  0
    4.5927   -8.2106   -0.5630 S   0  0  0  0  0  0  0  0  0  0  0  0
    2.8998   -7.6700   -0.1953 C   0  0  0  0  0  0  0  0  0  0  0  0
    9.2311   -5.6886   -0.5448 C   0  0  0  0  0  0  0  0  0  0  0  0
    4.6476   -9.6700   -0.3915 O   0  0  0  0  0  0  0  0  0  0  0  0
    5.0380   -7.6086   -1.8278 O   0  0  0  0  0  0  0  0  0  0  0  0
    4.7087   -5.5692    0.4418 H   0  0  0  0  0  0  0  0  0  0  0  0
    5.7942   -5.7217    1.7935 H   0  0  0  0  0  0  0  0  0  0  0  0
    7.0432   -7.9626    2.1034 H   0  0  0  0  0  0  0  0  0  0  0  0
    6.7058   -9.2530    0.9863 H   0  0  0  0  0  0  0  0  0  0  0  0
    8.8771   -8.1493    0.4459 H   0  0  0  0  0  0  0  0  0  0  0  0
    7.7596   -7.9743   -0.8877 H   0  0  0  0  0  0  0  0  0  0  0  0
    6.5884   -5.6759   -1.1772 H   0  0  0  0  0  0  0  0  0  0  0  0
    6.9156   -4.4493    0.0169 H   0  0  0  0  0  0  0  0  0  0  0  0
    2.2182   -8.1613   -0.8864 H   0  0  0  0  0  0  0  0  0  0  0  0
    2.8106   -6.5942   -0.3185 H   0  0  0  0  0  0  0  0  0  0  0  0
    2.6437   -7.9519    0.8236 H   0  0  0  0  0  0  0  0  0  0  0  0
    9.3421   -4.6119   -0.4127 H   0  0  0  0  0  0  0  0  0  0  0  0
    9.1089   -5.8874   -1.6101 H   0  0  0  0  0  0  0  0  0  0  0  0
   10.1605   -6.1561   -0.2184 H   0  0  0  0  0  0  0  0  0  0  0  0
    8.0808   -6.2004    0.2327 N   0  3  0  0  0  0  0  0  0  0  0  0
    8.2699   -5.9818    1.1994 H   0  0  0  0  0  0  0  0  0  0  0  0
  1  2  1  0  0  0  0
  1  5  1  0  0  0  0
  1 11  1  0  0  0  0
  1 12  1  0  0  0  0
  2  3  1  0  0  0  0
  2  6  1  0  0  0  0
  3  4  1  0  0  0  0
  3 13  1  0  0  0  0
  3 14  1  0  0  0  0
  4 15  1  0  0  0  0
  4 16  1  0  0  0  0
  4 25  1  0  0  0  0
  5 17  1  0  0  0  0
  5 18  1  0  0  0  0
  5 25  1  0  0  0  0
  6  7  1  0  0  0  0
  6  9  2  0  0  0  0
  6 10  2  0  0  0  0
  7 19  1  0  0  0  0
  7 20  1  0  0  0  0
  7 21  1  0  0  0  0
  8 22  1  0  0  0  0
  8 23  1  0  0  0  0
  8 24  1  0  0  0  0
  8 25  1  0  0  0  0
 25 26  1  0  0  0  0
M  CHG  1  25   1
M  END
>  <s_m_entry_id>
6458

>  <s_m_entry_name>
Schrodinger_fragment_81

>  <s_m_Source_Path>
/aloy/home/agimeno/Documents/Starting_Project/Part1_SMILES-to-signatures/1.2/Databases/Compounds/Fragment_library/Schrodinger

>  <s_m_Source_File>
schrodinger_fragment_collection_epik.maegz

>  <i_m_Source_File_Index>
89

>  <i_m_number_of_atoms>
26

>  <r_m_molecular_weight>
179.26265

>  <s_m_molecular_formula>
C6H15N2O2S1

>  <r_epik_Ionization_Penalty>
0.6659

>  <r_epik_Ionization_Penalty_Charging>
0.6659

>  <r_epik_Ionization_Penalty_Neutral>
0.0000

>  <r_epik_State_Penalty>
0.6659

>  <i_epik_Tot_Q>
1

>  <r_epik_Metal_State_Penalty>
0.6659

>  <b_epik_Metal_Only>
0

>  <s_canvas_Unique_SMILES_Stereo>
C1C[NH+](C)CCN1S(=O)(=O)C

>  <s_m_subgroup_title>
schrodinger_fragment_collection_epik

>  <s_m_subgroupid>
schrodinger_fragment_collection_epik

>  <b_m_subgroup_collapsed>
0

$$$$
Schrodinger_fragment_249_a
 OpenBabel04062209313D
Schrodinger Suite 2020-2.
 25 26  0  0  1  0  0  0  0  0999 V2000
   -0.1699   -0.6715   -0.8865 C   0  0  0  0  0  0  0  0  0  0  0  0
   -0.3003   -1.6531    0.2873 C   0  0  0  0  0  0  0  0  0  0  0  0
    2.0330   -1.1207    0.0972 C   0  0  1  0  0  0  0  0  0  0  0  0
    1.2693   -0.1463   -0.8268 C   0  0  0  0  0  0  0  0  0  0  0  0
    2.7755   -2.2367   -0.6703 C   0  0  0  0  0  0  0  0  0  0  0  0
    3.9867   -2.3608   -0.3311 N   0  0  0  0  0  0  0  0  0  0  0  0
    4.3441   -1.4245    0.7201 C   0  0  0  0  0  0  0  0  0  0  0  0
    3.1852   -0.4344    0.8364 C   0  0  0  0  0  0  0  0  0  0  0  0
    2.2012   -2.9198   -1.5248 O   0  5  0  0  0  0  0  0  0  0  0  0
    1.2571   -2.8427    1.8190 C   0  0  0  0  0  0  0  0  0  0  0  0
   -0.3507   -1.1911   -1.8283 H   0  0  0  0  0  0  0  0  0  0  0  0
   -0.8937    0.1415   -0.8181 H   0  0  0  0  0  0  0  0  0  0  0  0
   -1.1327   -1.3985    0.9442 H   0  0  0  0  0  0  0  0  0  0  0  0
   -0.4843   -2.6574   -0.0978 H   0  0  0  0  0  0  0  0  0  0  0  0
    1.7231   -0.0486   -1.8140 H   0  0  0  0  0  0  0  0  0  0  0  0
    1.2549    0.8508   -0.3849 H   0  0  0  0  0  0  0  0  0  0  0  0
    4.4938   -1.9549    1.6630 H   0  0  0  0  0  0  0  0  0  0  0  0
    5.2778   -0.9065    0.4913 H   0  0  0  0  0  0  0  0  0  0  0  0
    3.4643    0.4943    0.3355 H   0  0  0  0  0  0  0  0  0  0  0  0
    2.9568   -0.1803    1.8725 H   0  0  0  0  0  0  0  0  0  0  0  0
    2.1886   -2.7466    2.3763 H   0  0  0  0  0  0  0  0  0  0  0  0
    1.3239   -3.7308    1.1903 H   0  0  0  0  0  0  0  0  0  0  0  0
    0.4594   -3.0117    2.5424 H   0  0  0  0  0  0  0  0  0  0  0  0
    0.9795   -1.6176    1.0284 N   0  3  2  0  0  0  0  0  0  0  0  0
    0.8697   -0.8762    1.7012 H   0  0  0  0  0  0  0  0  0  0  0  0
  1  2  1  0  0  0  0
  1  4  1  0  0  0  0
  1 11  1  0  0  0  0
  1 12  1  0  0  0  0
  2 13  1  0  0  0  0
  2 14  1  0  0  0  0
  2 24  1  0  0  0  0
  3  4  1  0  0  0  0
  3  5  1  0  0  0  0
  3  8  1  0  0  0  0
  3 24  1  1  0  0  0
  4 15  1  0  0  0  0
  4 16  1  0  0  0  0
  5  6  2  0  0  0  0
  5  9  1  0  0  0  0
  6  7  1  0  0  0  0
  7  8  1  0  0  0  0
  7 17  1  0  0  0  0
  7 18  1  0  0  0  0
  8 19  1  0  0  0  0
  8 20  1  0  0  0  0
 10 21  1  0  0  0  0
 10 22  1  0  0  0  0
 10 23  1  0  0  0  0
 10 24  1  0  0  0  0
 24 25  1  1  0  0  0
M  CHG  2   9  -1  24   1
M  END
>  <s_m_entry_id>
6691

>  <s_m_entry_name>
Schrodinger_fragment_310

>  <s_m_Source_Path>
/aloy/home/agimeno/Documents/Starting_Project/Part1_SMILES-to-signatures/1.2/Databases/Compounds/Fragment_library/Schrodinger

>  <s_m_Source_File>
schrodinger_fragment_collection_epik.maegz

>  <i_m_Source_File_Index>
322

>  <i_m_number_of_atoms>
26

>  <r_m_molecular_weight>
155.22155

>  <s_m_molecular_formula>
C8H15N2O1

>  <r_epik_Ionization_Penalty>
3.5675

>  <r_epik_Ionization_Penalty_Charging>
3.5675

>  <r_epik_Ionization_Penalty_Neutral>
0.0000

>  <r_epik_State_Penalty>
3.5659

>  <i_epik_Tot_Q>
0

>  <r_epik_Metal_State_Penalty>
0.2040

>  <b_epik_Metal_Only>
1

>  <s_canvas_Unique_SMILES_Stereo>
C[N@@H+]1CCC[C@]12C([O-])=NCC2

>  <s_m_subgroup_title>
schrodinger_fragment_collection_epik

>  <s_m_subgroupid>
schrodinger_fragment_collection_epik

>  <b_m_subgroup_collapsed>
0

$$$$
Schrodinger_fragment_254_a
 OpenBabel04062209313D
Schrodinger Suite 2020-2.
 25 26  0  0  1  0  0  0  0  0999 V2000
   -0.1588   -0.8275    0.9469 C   0  0  0  0  0  0  0  0  0  0  0  0
   -0.2811   -1.7461   -0.2777 C   0  0  0  0  0  0  0  0  0  0  0  0
    2.0387   -1.1548   -0.0954 C   0  0  2  0  0  0  0  0  0  0  0  0
    1.2631   -0.2567    0.8938 C   0  0  0  0  0  0  0  0  0  0  0  0
    2.8268   -2.2888    0.5964 C   0  0  0  0  0  0  0  0  0  0  0  0
    4.0350   -2.3573    0.2315 N   0  0  0  0  0  0  0  0  0  0  0  0
    4.3463   -1.3537   -0.7712 C   0  0  0  0  0  0  0  0  0  0  0  0
    3.1571   -0.3941   -0.8133 C   0  0  0  0  0  0  0  0  0  0  0  0
    2.2879   -3.0353    1.4204 O   0  5  0  0  0  0  0  0  0  0  0  0
    1.2833   -2.8012   -1.8984 C   0  0  0  0  0  0  0  0  0  0  0  0
   -0.9071   -0.0342    0.9355 H   0  0  0  0  0  0  0  0  0  0  0  0
   -0.3079   -1.4037    1.8609 H   0  0  0  0  0  0  0  0  0  0  0  0
   -0.4287   -2.7753    0.0535 H   0  0  0  0  0  0  0  0  0  0  0  0
   -1.1320   -1.4807   -0.9060 H   0  0  0  0  0  0  0  0  0  0  0  0
    1.2119    0.7625    0.5088 H   0  0  0  0  0  0  0  0  0  0  0  0
    1.7312   -0.2003    1.8776 H   0  0  0  0  0  0  0  0  0  0  0  0
    5.2684   -0.8213   -0.5286 H   0  0  0  0  0  0  0  0  0  0  0  0
    4.4947   -1.8263   -1.7446 H   0  0  0  0  0  0  0  0  0  0  0  0
    2.9032   -0.0899   -1.8298 H   0  0  0  0  0  0  0  0  0  0  0  0
    3.4177    0.5133   -0.2656 H   0  0  0  0  0  0  0  0  0  0  0  0
    2.2015   -2.6463   -2.4643 H   0  0  0  0  0  0  0  0  0  0  0  0
    0.4781   -2.9539   -2.6171 H   0  0  0  0  0  0  0  0  0  0  0  0
    1.3872   -3.7204   -1.3215 H   0  0  0  0  0  0  0  0  0  0  0  0
    0.9839   -1.6308   -1.0361 N   0  3  1  0  0  0  0  0  0  0  0  0
    0.8406   -0.8569   -1.6644 H   0  0  0  0  0  0  0  0  0  0  0  0
  1  2  1  0  0  0  0
  1  4  1  0  0  0  0
  1 11  1  0  0  0  0
  1 12  1  0  0  0  0
  2 13  1  0  0  0  0
  2 14  1  0  0  0  0
  2 24  1  0  0  0  0
  3  4  1  0  0  0  0
  3  5  1  0  0  0  0
  3  8  1  0  0  0  0
  3 24  1  6  0  0  0
  4 15  1  0  0  0  0
  4 16  1  0  0  0  0
  5  6  2  0  0  0  0
  5  9  1  0  0  0  0
  6  7  1  0  0  0  0
  7  8  1  0  0  0  0
  7 17  1  0  0  0  0
  7 18  1  0  0  0  0
  8 19  1  0  0  0  0
  8 20  1  0  0  0  0
 10 21  1  0  0  0  0
 10 22  1  0  0  0  0
 10 23  1  0  0  0  0
 10 24  1  0  0  0  0
 24 25  1  6  0  0  0
M  CHG  2   9  -1  24   1
M  END
>  <s_m_entry_id>
6698

>  <s_m_entry_name>
Schrodinger_fragment_315

>  <s_m_Source_Path>
/aloy/home/agimeno/Documents/Starting_Project/Part1_SMILES-to-signatures/1.2/Databases/Compounds/Fragment_library/Schrodinger

>  <s_m_Source_File>
schrodinger_fragment_collection_epik.maegz

>  <i_m_Source_File_Index>
329

>  <i_m_number_of_atoms>
26

>  <r_m_molecular_weight>
155.22155

>  <s_m_molecular_formula>
C8H15N2O1

>  <r_epik_Ionization_Penalty>
3.5675

>  <r_epik_Ionization_Penalty_Charging>
3.5675

>  <r_epik_Ionization_Penalty_Neutral>
0.0000

>  <r_epik_State_Penalty>
3.5659

>  <i_epik_Tot_Q>
0

>  <r_epik_Metal_State_Penalty>
0.2040

>  <b_epik_Metal_Only>
1

>  <s_canvas_Unique_SMILES_Stereo>
C[N@H+]1CCC[C@@]12C([O-])=NCC2

>  <s_m_subgroup_title>
schrodinger_fragment_collection_epik

>  <s_m_subgroupid>
schrodinger_fragment_collection_epik

>  <b_m_subgroup_collapsed>
0

$$$$
Schrodinger_fragment_255_a
 OpenBabel04062209313D
Schrodinger Suite 2020-2.
 25 26  0  0  1  0  0  0  0  0999 V2000
   -0.0633   -0.2873    0.4405 C   0  0  0  0  0  0  0  0  0  0  0  0
   -0.3127   -1.5298   -0.4227 C   0  0  0  0  0  0  0  0  0  0  0  0
    2.0360   -1.4137    0.1178 C   0  0  2  0  0  0  0  0  0  0  0  0
    1.2396   -0.6068    1.1671 C   0  0  0  0  0  0  0  0  0  0  0  0
    3.0575   -2.3840    0.7077 C   0  0  0  0  0  0  0  0  0  0  0  0
    4.2173   -2.2567    0.2255 N   0  0  0  0  0  0  0  0  0  0  0  0
    4.2542   -1.2363   -0.8110 C   0  0  0  0  0  0  0  0  0  0  0  0
    2.9102   -0.5073   -0.7624 C   0  0  0  0  0  0  0  0  0  0  0  0
    2.7057   -3.2206    1.5451 O   0  5  0  0  0  0  0  0  0  0  0  0
    1.2780   -2.6669   -1.9771 C   0  0  0  0  0  0  0  0  0  0  0  0
    0.0765    0.5847   -0.2000 H   0  0  0  0  0  0  0  0  0  0  0  0
   -0.8890   -0.0730    1.1197 H   0  0  0  0  0  0  0  0  0  0  0  0
   -0.9906   -2.2211    0.0788 H   0  0  0  0  0  0  0  0  0  0  0  0
   -0.7712   -1.2556   -1.3738 H   0  0  0  0  0  0  0  0  0  0  0  0
    1.7582    0.2808    1.5297 H   0  0  0  0  0  0  0  0  0  0  0  0
    1.0123   -1.2195    2.0408 H   0  0  0  0  0  0  0  0  0  0  0  0
    5.0811   -0.5406   -0.6542 H   0  0  0  0  0  0  0  0  0  0  0  0
    4.4041   -1.6976   -1.7895 H   0  0  0  0  0  0  0  0  0  0  0  0
    2.5036   -0.2876   -1.7485 H   0  0  0  0  0  0  0  0  0  0  0  0
    3.0634    0.4611   -0.2843 H   0  0  0  0  0  0  0  0  0  0  0  0
    2.2501   -3.1556   -2.0400 H   0  0  0  0  0  0  0  0  0  0  0  0
    1.2515   -1.8528   -2.7005 H   0  0  0  0  0  0  0  0  0  0  0  0
    0.5273   -3.3964   -2.2810 H   0  0  0  0  0  0  0  0  0  0  0  0
    0.9972   -2.1993   -0.5982 N   0  3  2  0  0  0  0  0  0  0  0  0
    0.9745   -3.0325   -0.0240 H   0  0  0  0  0  0  0  0  0  0  0  0
  1  2  1  0  0  0  0
  1  4  1  0  0  0  0
  1 11  1  0  0  0  0
  1 12  1  0  0  0  0
  2 13  1  0  0  0  0
  2 14  1  0  0  0  0
  2 24  1  0  0  0  0
  3  4  1  0  0  0  0
  3  5  1  0  0  0  0
  3  8  1  0  0  0  0
  3 24  1  6  0  0  0
  4 15  1  0  0  0  0
  4 16  1  0  0  0  0
  5  6  2  0  0  0  0
  5  9  1  0  0  0  0
  6  7  1  0  0  0  0
  7  8  1  0  0  0  0
  7 17  1  0  0  0  0
  7 18  1  0  0  0  0
  8 19  1  0  0  0  0
  8 20  1  0  0  0  0
 10 21  1  0  0  0  0
 10 22  1  0  0  0  0
 10 23  1  0  0  0  0
 10 24  1  0  0  0  0
 24 25  1  1  0  0  0
M  CHG  2   9  -1  24   1
M  END
>  <s_m_entry_id>
6700

>  <s_m_entry_name>
Schrodinger_fragment_316

>  <s_m_Source_Path>
/aloy/home/agimeno/Documents/Starting_Project/Part1_SMILES-to-signatures/1.2/Databases/Compounds/Fragment_library/Schrodinger

>  <s_m_Source_File>
schrodinger_fragment_collection_epik.maegz

>  <i_m_Source_File_Index>
331

>  <i_m_number_of_atoms>
26

>  <r_m_molecular_weight>
155.22155

>  <s_m_molecular_formula>
C8H15N2O1

>  <r_epik_Ionization_Penalty>
3.5675

>  <r_epik_Ionization_Penalty_Charging>
3.5675

>  <r_epik_Ionization_Penalty_Neutral>
0.0000

>  <r_epik_State_Penalty>
3.5659

>  <i_epik_Tot_Q>
0

>  <r_epik_Metal_State_Penalty>
0.2040

>  <b_epik_Metal_Only>
1

>  <s_canvas_Unique_SMILES_Stereo>
C[N@@H+]1CCC[C@@]12C([O-])=NCC2

>  <s_m_subgroup_title>
schrodinger_fragment_collection_epik

>  <s_m_subgroupid>
schrodinger_fragment_collection_epik

>  <b_m_subgroup_collapsed>
0

$$$$
Schrodinger_fragment_288
 OpenBabel04062209313D
Schrodinger Suite 2020-2.
 30 31  0  0  1  0  0  0  0  0999 V2000
    0.9019   -2.9394   -0.0730 C   0  0  0  0  0  0  0  0  0  0  0  0
    1.3767   -3.0377   -1.3236 N   0  0  0  0  0  0  0  0  0  0  0  0
    1.8856   -2.5051    0.7365 N   0  0  0  0  0  0  0  0  0  0  0  0
    3.1372   -2.2787    0.0149 C   0  0  0  0  0  0  0  0  0  0  0  0
    2.6629   -2.6861   -1.3815 C   0  0  0  0  0  0  0  0  0  0  0  0
    3.5762   -0.7924    0.0547 C   0  0  0  0  0  0  0  0  0  0  0  0
    4.8809   -0.5189   -0.7374 C   0  0  0  0  0  0  0  0  0  0  0  0
    5.6836   -2.5408    0.4799 C   0  0  0  0  0  0  0  0  0  0  0  0
    4.2861   -3.2057    0.5152 C   0  0  0  0  0  0  0  0  0  0  0  0
    3.3905   -2.6944   -2.3805 O   0  0  0  0  0  0  0  0  0  0  0  0
   -0.2511   -3.2023    0.2825 O   0  0  0  0  0  0  0  0  0  0  0  0
    0.5865   -3.4975   -2.4681 C   0  0  0  0  0  0  0  0  0  0  0  0
    1.7377   -2.2410    2.1682 C   0  0  0  0  0  0  0  0  0  0  0  0
    2.7844   -0.1400   -0.3170 H   0  0  0  0  0  0  0  0  0  0  0  0
    3.7324   -0.4931    1.0914 H   0  0  0  0  0  0  0  0  0  0  0  0
    4.6599   -0.3104   -1.7850 H   0  0  0  0  0  0  0  0  0  0  0  0
    5.3555    0.3818   -0.3463 H   0  0  0  0  0  0  0  0  0  0  0  0
    5.8390   -1.9592    1.3902 H   0  0  0  0  0  0  0  0  0  0  0  0
    6.4632   -3.3034    0.4706 H   0  0  0  0  0  0  0  0  0  0  0  0
    4.0994   -3.5498    1.5325 H   0  0  0  0  0  0  0  0  0  0  0  0
    4.3199   -4.1201   -0.0802 H   0  0  0  0  0  0  0  0  0  0  0  0
    1.0442   -3.2254   -3.4206 H   0  0  0  0  0  0  0  0  0  0  0  0
   -0.4142   -3.0626   -2.4521 H   0  0  0  0  0  0  0  0  0  0  0  0
    0.4832   -4.5830   -2.4424 H   0  0  0  0  0  0  0  0  0  0  0  0
    2.6828   -1.9616    2.6341 H   0  0  0  0  0  0  0  0  0  0  0  0
    1.3616   -3.1259    2.6838 H   0  0  0  0  0  0  0  0  0  0  0  0
    1.0299   -1.4275    2.3332 H   0  0  0  0  0  0  0  0  0  0  0  0
    5.8504   -1.6413   -0.6817 N   0  3  0  0  0  0  0  0  0  0  0  0
    5.7674   -2.1836   -1.5282 H   0  0  0  0  0  0  0  0  0  0  0  0
    6.7841   -1.2603   -0.6776 H   0  0  0  0  0  0  0  0  0  0  0  0
  1  2  1  0  0  0  0
  1  3  1  0  0  0  0
  1 11  2  0  0  0  0
  2  5  1  0  0  0  0
  2 12  1  0  0  0  0
  3  4  1  0  0  0  0
  3 13  1  0  0  0  0
  4  5  1  0  0  0  0
  4  6  1  0  0  0  0
  4  9  1  0  0  0  0
  5 10  2  0  0  0  0
  6  7  1  0  0  0  0
  6 14  1  0  0  0  0
  6 15  1  0  0  0  0
  7 16  1  0  0  0  0
  7 17  1  0  0  0  0
  7 28  1  0  0  0  0
  8  9  1  0  0  0  0
  8 18  1  0  0  0  0
  8 19  1  0  0  0  0
  8 28  1  0  0  0  0
  9 20  1  0  0  0  0
  9 21  1  0  0  0  0
 12 22  1  0  0  0  0
 12 23  1  0  0  0  0
 12 24  1  0  0  0  0
 13 25  1  0  0  0  0
 13 26  1  0  0  0  0
 13 27  1  0  0  0  0
 28 29  1  0  0  0  0
 28 30  1  0  0  0  0
M  CHG  1  28   1
M  END
>  <s_m_entry_id>
6746

>  <s_m_entry_name>
Schrodinger_fragment_349

>  <s_m_Source_Path>
/aloy/home/agimeno/Documents/Starting_Project/Part1_SMILES-to-signatures/1.2/Databases/Compounds/Fragment_library/Schrodinger

>  <s_m_Source_File>
schrodinger_fragment_collection_epik.maegz

>  <i_m_Source_File_Index>
377

>  <i_m_number_of_atoms>
30

>  <r_m_molecular_weight>
198.24677

>  <s_m_molecular_formula>
C9H16N3O2

>  <r_epik_Ionization_Penalty>
0.0082

>  <r_epik_Ionization_Penalty_Charging>
0.0082

>  <r_epik_Ionization_Penalty_Neutral>
0.0000

>  <r_epik_State_Penalty>
0.0000

>  <i_epik_Tot_Q>
1

>  <r_epik_Metal_State_Penalty>
0.0000

>  <b_epik_Metal_Only>
0

>  <s_canvas_Unique_SMILES_Stereo>
CN1C(=O)N(C)C(=O)C12CC[NH2+]CC2

>  <s_m_subgroup_title>
schrodinger_fragment_collection_epik

>  <s_m_subgroupid>
schrodinger_fragment_collection_epik

>  <b_m_subgroup_collapsed>
0

$$$$
Schrodinger_fragment_167
 OpenBabel04062209313D
Schrodinger Suite 2020-2.
 13 12  0  0  1  0  0  0  0  0999 V2000
   -1.4176   -0.7158    0.0231 N   0  0  0  0  0  0  0  0  0  0  0  0
   -0.5189    0.2763    0.0219 C   0  0  0  0  0  0  0  0  0  0  0  0
   -0.9315    1.5390    0.0151 N   0  0  0  0  0  0  0  0  0  0  0  0
   -1.1182   -2.1547    0.0302 C   0  0  0  0  0  0  0  0  0  0  0  0
   -2.4024   -0.4854    0.0188 H   0  0  0  0  0  0  0  0  0  0  0  0
   -0.2903    2.3198    0.0139 H   0  0  0  0  0  0  0  0  0  0  0  0
   -1.9170    1.7673    0.0108 H   0  0  0  0  0  0  0  0  0  0  0  0
    1.4839    0.7462    0.0266 H   0  0  0  0  0  0  0  0  0  0  0  0
   -2.0411   -2.7343    0.0296 H   0  0  0  0  0  0  0  0  0  0  0  0
   -0.5480   -2.4252    0.9191 H   0  0  0  0  0  0  0  0  0  0  0  0
   -0.5421   -2.4328   -0.8524 H   0  0  0  0  0  0  0  0  0  0  0  0
    0.7867    0.0158    0.0273 N   0  3  0  0  0  0  0  0  0  0  0  0
    1.1205   -0.9368    0.0325 H   0  0  0  0  0  0  0  0  0  0  0  0
  1  2  1  0  0  0  0
  1  4  1  0  0  0  0
  1  5  1  0  0  0  0
  2  3  1  0  0  0  0
  2 12  2  0  0  0  0
  3  6  1  0  0  0  0
  3  7  1  0  0  0  0
  4  9  1  0  0  0  0
  4 10  1  0  0  0  0
  4 11  1  0  0  0  0
  8 12  1  0  0  0  0
 12 13  1  0  0  0  0
M  CHG  1  12   1
M  END
>  <s_m_entry_id>
6580

>  <s_m_entry_name>
Schrodinger_fragment_222

>  <s_m_Source_Path>
/aloy/home/agimeno/Documents/Starting_Project/Part1_SMILES-to-signatures/1.2/Databases/Compounds/Fragment_library/Schrodinger

>  <s_m_Source_File>
schrodinger_fragment_collection_epik.maegz

>  <i_m_Source_File_Index>
211

>  <i_m_number_of_atoms>
13

>  <r_m_molecular_weight>
74.10616

>  <s_m_molecular_formula>
C2H8N3

>  <r_epik_Ionization_Penalty>
0.0000

>  <r_epik_Ionization_Penalty_Charging>
0.0000

>  <r_epik_Ionization_Penalty_Neutral>
0.0000

>  <r_epik_State_Penalty>
0.0000

>  <i_epik_Tot_Q>
1

>  <r_epik_Metal_State_Penalty>
0.0000

>  <b_epik_Metal_Only>
0

>  <s_canvas_Unique_SMILES_Stereo>
NC(=[NH2+])NC

>  <s_m_subgroup_title>
schrodinger_fragment_collection_epik

>  <s_m_subgroupid>
schrodinger_fragment_collection_epik

>  <b_m_subgroup_collapsed>
0

$$$$
Schrodinger_fragment_289
 OpenBabel04062209313D
Schrodinger Suite 2020-2.
 33 34  0  0  1  0  0  0  0  0999 V2000
    0.9892   -3.1924    0.2579 C   0  0  0  0  0  0  0  0  0  0  0  0
    1.5769   -3.4721    1.4301 N   0  0  0  0  0  0  0  0  0  0  0  0
    1.8730   -2.5629   -0.5382 N   0  0  0  0  0  0  0  0  0  0  0  0
    3.1719   -2.3849    0.1117 C   0  0  1  0  0  0  0  0  0  0  0  0
    2.8425   -3.0474    1.4527 C   0  0  0  0  0  0  0  0  0  0  0  0
    4.3044   -3.1218   -0.6494 C   0  0  0  0  0  0  0  0  0  0  0  0
    5.7044   -2.8484   -0.0581 C   0  0  0  0  0  0  0  0  0  0  0  0
    4.9594   -0.6703    0.8345 C   0  0  0  0  0  0  0  0  0  0  0  0
    3.5397   -0.8864    0.2668 C   0  0  0  0  0  0  0  0  0  0  0  0
    3.6396   -3.1580    2.3896 O   0  0  0  0  0  0  0  0  0  0  0  0
   -0.1760   -3.4668   -0.0456 O   0  0  0  0  0  0  0  0  0  0  0  0
    0.9012   -4.1566    2.5353 C   0  0  0  0  0  0  0  0  0  0  0  0
    1.5852   -2.1025   -1.8978 C   0  0  0  0  0  0  0  0  0  0  0  0
    7.3597   -1.1193    0.5189 C   0  0  0  0  0  0  0  0  0  0  0  0
    4.1218   -4.1976   -0.6530 H   0  0  0  0  0  0  0  0  0  0  0  0
    4.3070   -2.8235   -1.6976 H   0  0  0  0  0  0  0  0  0  0  0  0
    5.8066   -3.3099    0.9249 H   0  0  0  0  0  0  0  0  0  0  0  0
    6.4566   -3.3209   -0.6914 H   0  0  0  0  0  0  0  0  0  0  0  0
    5.1848    0.3972    0.8322 H   0  0  0  0  0  0  0  0  0  0  0  0
    5.0117   -0.9859    1.8772 H   0  0  0  0  0  0  0  0  0  0  0  0
    3.4719   -0.3822   -0.6970 H   0  0  0  0  0  0  0  0  0  0  0  0
    2.8168   -0.3827    0.9106 H   0  0  0  0  0  0  0  0  0  0  0  0
    1.5523   -4.3027    3.3986 H   0  0  0  0  0  0  0  0  0  0  0  0
    0.5498   -5.1390    2.2164 H   0  0  0  0  0  0  0  0  0  0  0  0
    0.0361   -3.5805    2.8668 H   0  0  0  0  0  0  0  0  0  0  0  0
    2.4420   -1.6191   -2.3660 H   0  0  0  0  0  0  0  0  0  0  0  0
    0.7631   -1.3853   -1.8898 H   0  0  0  0  0  0  0  0  0  0  0  0
    1.2923   -2.9426   -2.5293 H   0  0  0  0  0  0  0  0  0  0  0  0
    7.5688   -0.0492    0.5130 H   0  0  0  0  0  0  0  0  0  0  0  0
    8.0991   -1.6001   -0.1223 H   0  0  0  0  0  0  0  0  0  0  0  0
    7.5048   -1.4862    1.5356 H   0  0  0  0  0  0  0  0  0  0  0  0
    5.9860   -1.3927    0.0397 N   0  3  1  0  0  0  0  0  0  0  0  0
    5.9501   -1.0205   -0.8985 H   0  0  0  0  0  0  0  0  0  0  0  0
  1  2  1  0  0  0  0
  1  3  1  0  0  0  0
  1 11  2  0  0  0  0
  2  5  1  0  0  0  0
  2 12  1  0  0  0  0
  3  4  1  0  0  0  0
  3 13  1  0  0  0  0
  4  5  1  1  0  0  0
  4  6  1  0  0  0  0
  4  9  1  0  0  0  0
  5 10  2  0  0  0  0
  6  7  1  0  0  0  0
  6 15  1  0  0  0  0
  6 16  1  0  0  0  0
  7 17  1  0  0  0  0
  7 18  1  0  0  0  0
  7 32  1  0  0  0  0
  8  9  1  0  0  0  0
  8 19  1  0  0  0  0
  8 20  1  0  0  0  0
  8 32  1  0  0  0  0
  9 21  1  0  0  0  0
  9 22  1  0  0  0  0
 12 23  1  0  0  0  0
 12 24  1  0  0  0  0
 12 25  1  0  0  0  0
 13 26  1  0  0  0  0
 13 27  1  0  0  0  0
 13 28  1  0  0  0  0
 14 29  1  0  0  0  0
 14 30  1  0  0  0  0
 14 31  1  0  0  0  0
 14 32  1  0  0  0  0
 32 33  1  6  0  0  0
M  CHG  1  32   1
M  END
>  <s_m_entry_id>
6747

>  <s_m_entry_name>
Schrodinger_fragment_350

>  <s_m_Source_Path>
/aloy/home/agimeno/Documents/Starting_Project/Part1_SMILES-to-signatures/1.2/Databases/Compounds/Fragment_library/Schrodinger

>  <s_m_Source_File>
schrodinger_fragment_collection_epik.maegz

>  <i_m_Source_File_Index>
378

>  <i_m_number_of_atoms>
33

>  <r_m_molecular_weight>
212.27386

>  <s_m_molecular_formula>
C10H18N3O2

>  <r_epik_Ionization_Penalty>
0.0006

>  <r_epik_Ionization_Penalty_Charging>
0.0006

>  <r_epik_Ionization_Penalty_Neutral>
0.0000

>  <r_epik_State_Penalty>
0.0000

>  <i_epik_Tot_Q>
1

>  <r_epik_Metal_State_Penalty>
0.0000

>  <b_epik_Metal_Only>
0

>  <s_canvas_Unique_SMILES_Stereo>
CN1C(=O)N(C)C(=O)C12CC[NH+](C)CC2

>  <s_m_subgroup_title>
schrodinger_fragment_collection_epik

>  <s_m_subgroupid>
schrodinger_fragment_collection_epik

>  <b_m_subgroup_collapsed>
0

$$$$
Schrodinger_fragment_248_a
 OpenBabel04062209313D
Schrodinger Suite 2020-2.
 25 26  0  0  1  0  0  0  0  0999 V2000
   -0.0500   -0.2299   -0.4689 C   0  0  0  0  0  0  0  0  0  0  0  0
   -0.3265   -1.5052    0.3363 C   0  0  0  0  0  0  0  0  0  0  0  0
    2.0386   -1.3685   -0.1209 C   0  0  1  0  0  0  0  0  0  0  0  0
    1.2767   -0.5210   -1.1637 C   0  0  0  0  0  0  0  0  0  0  0  0
    3.0803   -2.3151   -0.7141 C   0  0  0  0  0  0  0  0  0  0  0  0
    4.2233   -2.2071   -0.1889 N   0  0  0  0  0  0  0  0  0  0  0  0
    4.2246   -1.2280    0.8873 C   0  0  0  0  0  0  0  0  0  0  0  0
    2.8822   -0.4974    0.8226 C   0  0  0  0  0  0  0  0  0  0  0  0
    2.7574   -3.1183   -1.5948 O   0  5  0  0  0  0  0  0  0  0  0  0
    1.2129   -2.7026    1.8970 C   0  0  0  0  0  0  0  0  0  0  0  0
   -0.8529    0.0110   -1.1662 H   0  0  0  0  0  0  0  0  0  0  0  0
    0.0675    0.6163    0.2096 H   0  0  0  0  0  0  0  0  0  0  0  0
   -0.8167   -1.2683    1.2817 H   0  0  0  0  0  0  0  0  0  0  0  0
   -0.9866   -2.1762   -0.2142 H   0  0  0  0  0  0  0  0  0  0  0  0
    1.0792   -1.0989   -2.0678 H   0  0  0  0  0  0  0  0  0  0  0  0
    1.8060    0.3800   -1.4739 H   0  0  0  0  0  0  0  0  0  0  0  0
    4.3425   -1.7273    1.8515 H   0  0  0  0  0  0  0  0  0  0  0  0
    5.0555   -0.5268    0.7854 H   0  0  0  0  0  0  0  0  0  0  0  0
    3.0501    0.4889    0.3881 H   0  0  0  0  0  0  0  0  0  0  0  0
    2.4428   -0.3164    1.8026 H   0  0  0  0  0  0  0  0  0  0  0  0
    2.1829   -3.1935    1.9730 H   0  0  0  0  0  0  0  0  0  0  0  0
    0.4533   -3.4432    2.1471 H   0  0  0  0  0  0  0  0  0  0  0  0
    1.1615   -1.9174    2.6505 H   0  0  0  0  0  0  0  0  0  0  0  0
    0.9775   -2.1813    0.5289 N   0  3  1  0  0  0  0  0  0  0  0  0
    0.9748   -2.9914   -0.0779 H   0  0  0  0  0  0  0  0  0  0  0  0
  1  2  1  0  0  0  0
  1  4  1  0  0  0  0
  1 11  1  0  0  0  0
  1 12  1  0  0  0  0
  2 13  1  0  0  0  0
  2 14  1  0  0  0  0
  2 24  1  0  0  0  0
  3  4  1  0  0  0  0
  3  5  1  0  0  0  0
  3  8  1  0  0  0  0
  3 24  1  1  0  0  0
  4 15  1  0  0  0  0
  4 16  1  0  0  0  0
  5  6  2  0  0  0  0
  5  9  1  0  0  0  0
  6  7  1  0  0  0  0
  7  8  1  0  0  0  0
  7 17  1  0  0  0  0
  7 18  1  0  0  0  0
  8 19  1  0  0  0  0
  8 20  1  0  0  0  0
 10 21  1  0  0  0  0
 10 22  1  0  0  0  0
 10 23  1  0  0  0  0
 10 24  1  0  0  0  0
 24 25  1  6  0  0  0
M  CHG  2   9  -1  24   1
M  END
>  <s_m_entry_id>
6689

>  <s_m_entry_name>
Schrodinger_fragment_309

>  <s_m_Source_Path>
/aloy/home/agimeno/Documents/Starting_Project/Part1_SMILES-to-signatures/1.2/Databases/Compounds/Fragment_library/Schrodinger

>  <s_m_Source_File>
schrodinger_fragment_collection_epik.maegz

>  <i_m_Source_File_Index>
320

>  <i_m_number_of_atoms>
26

>  <r_m_molecular_weight>
155.22155

>  <s_m_molecular_formula>
C8H15N2O1

>  <r_epik_Ionization_Penalty>
3.5675

>  <r_epik_Ionization_Penalty_Charging>
3.5675

>  <r_epik_Ionization_Penalty_Neutral>
0.0000

>  <r_epik_State_Penalty>
3.5659

>  <i_epik_Tot_Q>
0

>  <r_epik_Metal_State_Penalty>
0.2040

>  <b_epik_Metal_Only>
1

>  <s_canvas_Unique_SMILES_Stereo>
C[N@H+]1CCC[C@]12C([O-])=NCC2

>  <s_m_subgroup_title>
schrodinger_fragment_collection_epik

>  <s_m_subgroupid>
schrodinger_fragment_collection_epik

>  <b_m_subgroup_collapsed>
0

$$$$
Schrodinger_fragment_254
 OpenBabel04062209313D
Schrodinger Suite 2020-2.
 26 27  0  0  1  0  0  0  0  0999 V2000
   -0.1195   -0.8887    0.9972 C   0  0  0  0  0  0  0  0  0  0  0  0
   -0.3091   -1.6952   -0.2967 C   0  0  0  0  0  0  0  0  0  0  0  0
    2.0298   -1.1414   -0.1186 C   0  0  2  0  0  0  0  0  0  0  0  0
    1.2630   -0.2429    0.8691 C   0  0  0  0  0  0  0  0  0  0  0  0
    2.7751   -2.2841    0.5967 C   0  0  0  0  0  0  0  0  0  0  0  0
    4.0496   -2.3302    0.2273 N   0  0  0  0  0  0  0  0  0  0  0  0
    4.4178   -1.3102   -0.7355 C   0  0  0  0  0  0  0  0  0  0  0  0
    3.1758   -0.4107   -0.8552 C   0  0  0  0  0  0  0  0  0  0  0  0
    2.2515   -3.0643    1.3934 O   0  0  0  0  0  0  0  0  0  0  0  0
    1.2552   -2.8280   -1.8765 C   0  0  0  0  0  0  0  0  0  0  0  0
   -0.9070   -0.1485    1.1431 H   0  0  0  0  0  0  0  0  0  0  0  0
   -0.1420   -1.5613    1.8560 H   0  0  0  0  0  0  0  0  0  0  0  0
   -0.5722   -2.7263   -0.0548 H   0  0  0  0  0  0  0  0  0  0  0  0
   -1.1147   -1.2893   -0.9095 H   0  0  0  0  0  0  0  0  0  0  0  0
    1.1577    0.7616    0.4573 H   0  0  0  0  0  0  0  0  0  0  0  0
    1.7620   -0.1437    1.8345 H   0  0  0  0  0  0  0  0  0  0  0  0
    4.7113   -3.0097    0.5797 H   0  0  0  0  0  0  0  0  0  0  0  0
    5.2935   -0.7516   -0.4014 H   0  0  0  0  0  0  0  0  0  0  0  0
    4.6606   -1.7790   -1.6906 H   0  0  0  0  0  0  0  0  0  0  0  0
    2.9444   -0.1959   -1.8990 H   0  0  0  0  0  0  0  0  0  0  0  0
    3.3841    0.5484   -0.3792 H   0  0  0  0  0  0  0  0  0  0  0  0
    2.1884   -2.7104   -2.4276 H   0  0  0  0  0  0  0  0  0  0  0  0
    0.4607   -2.9731   -2.6089 H   0  0  0  0  0  0  0  0  0  0  0  0
    1.3199   -3.7398   -1.2820 H   0  0  0  0  0  0  0  0  0  0  0  0
    0.9689   -1.6318   -1.0444 N   0  3  1  0  0  0  0  0  0  0  0  0
    0.8378   -0.8759   -1.6986 H   0  0  0  0  0  0  0  0  0  0  0  0
  1  2  1  0  0  0  0
  1  4  1  0  0  0  0
  1 11  1  0  0  0  0
  1 12  1  0  0  0  0
  2 13  1  0  0  0  0
  2 14  1  0  0  0  0
  2 25  1  0  0  0  0
  3  4  1  0  0  0  0
  3  5  1  0  0  0  0
  3  8  1  0  0  0  0
  3 25  1  6  0  0  0
  4 15  1  0  0  0  0
  4 16  1  0  0  0  0
  5  6  1  0  0  0  0
  5  9  2  0  0  0  0
  6  7  1  0  0  0  0
  6 17  1  0  0  0  0
  7  8  1  0  0  0  0
  7 18  1  0  0  0  0
  7 19  1  0  0  0  0
  8 20  1  0  0  0  0
  8 21  1  0  0  0  0
 10 22  1  0  0  0  0
 10 23  1  0  0  0  0
 10 24  1  0  0  0  0
 10 25  1  0  0  0  0
 25 26  1  6  0  0  0
M  CHG  1  25   1
M  END
>  <s_m_entry_id>
6697

>  <s_m_entry_name>
Schrodinger_fragment_315

>  <s_m_Source_Path>
/aloy/home/agimeno/Documents/Starting_Project/Part1_SMILES-to-signatures/1.2/Databases/Compounds/Fragment_library/Schrodinger

>  <s_m_Source_File>
schrodinger_fragment_collection_epik.maegz

>  <i_m_Source_File_Index>
328

>  <i_m_number_of_atoms>
26

>  <r_m_molecular_weight>
155.22155

>  <s_m_molecular_formula>
C8H15N2O1

>  <r_epik_Ionization_Penalty>
0.0019

>  <r_epik_Ionization_Penalty_Charging>
0.0005

>  <r_epik_Ionization_Penalty_Neutral>
0.0014

>  <r_epik_State_Penalty>
0.0000

>  <i_epik_Tot_Q>
1

>  <r_epik_Metal_State_Penalty>
0.7308

>  <b_epik_Metal_Only>
0

>  <s_canvas_Unique_SMILES_Stereo>
C[N@H+]1CCC[C@@]12C(=O)NCC2

>  <s_m_subgroup_title>
schrodinger_fragment_collection_epik

>  <s_m_subgroupid>
schrodinger_fragment_collection_epik

>  <b_m_subgroup_collapsed>
0

$$$$
Schrodinger_fragment_403
 OpenBabel04062209313D
Schrodinger Suite 2020-2.
 31 32  0  0  1  0  0  0  0  0999 V2000
    2.4906   -2.3322    0.6529 C   0  0  1  0  0  0  0  0  0  0  0  0
    3.5010   -2.7490   -0.4535 C   0  0  0  0  0  0  0  0  0  0  0  0
    4.8078   -2.1185   -0.2384 N   0  0  0  0  0  0  0  0  0  0  0  0
    4.8752   -0.8261    0.1367 C   0  0  0  0  0  0  0  0  0  0  0  0
    3.5401   -0.0719    0.2311 C   0  0  0  0  0  0  0  0  0  0  0  0
    1.1068   -0.2480    0.4219 C   0  0  0  0  0  0  0  0  0  0  0  0
    0.5727   -0.9197   -0.8500 C   0  0  0  0  0  0  0  0  0  0  0  0
    0.3353   -2.4252   -0.6248 C   0  0  0  0  0  0  0  0  0  0  0  0
    5.9333   -0.2428    0.3854 O   0  0  0  0  0  0  0  0  0  0  0  0
    1.1425   -4.4421    0.5640 C   0  0  0  0  0  0  0  0  0  0  0  0
    6.0008   -2.9504   -0.4093 C   0  0  0  0  0  0  0  0  0  0  0  0
    2.8963   -2.6852    1.6038 H   0  0  0  0  0  0  0  0  0  0  0  0
    3.6212   -3.8321   -0.4595 H   0  0  0  0  0  0  0  0  0  0  0  0
    3.1363   -2.4722   -1.4434 H   0  0  0  0  0  0  0  0  0  0  0  0
    3.6723    0.8378    0.8184 H   0  0  0  0  0  0  0  0  0  0  0  0
    3.3121    0.2507   -0.7862 H   0  0  0  0  0  0  0  0  0  0  0  0
    1.1948    0.8325    0.2914 H   0  0  0  0  0  0  0  0  0  0  0  0
    0.3980   -0.3889    1.2402 H   0  0  0  0  0  0  0  0  0  0  0  0
   -0.3551   -0.4442   -1.1702 H   0  0  0  0  0  0  0  0  0  0  0  0
    1.2779   -0.7729   -1.6689 H   0  0  0  0  0  0  0  0  0  0  0  0
   -0.7171   -2.6069   -0.4031 H   0  0  0  0  0  0  0  0  0  0  0  0
    0.5550   -2.9667   -1.5459 H   0  0  0  0  0  0  0  0  0  0  0  0
    0.1227   -4.8164    0.6568 H   0  0  0  0  0  0  0  0  0  0  0  0
    1.7022   -4.8001    1.4285 H   0  0  0  0  0  0  0  0  0  0  0  0
    1.5753   -4.8875   -0.3317 H   0  0  0  0  0  0  0  0  0  0  0  0
    6.8267   -2.3836   -0.8423 H   0  0  0  0  0  0  0  0  0  0  0  0
    5.8132   -3.7950   -1.0730 H   0  0  0  0  0  0  0  0  0  0  0  0
    6.3288   -3.3418    0.5543 H   0  0  0  0  0  0  0  0  0  0  0  0
    2.3955   -0.8543    0.7797 N   0  0  1  0  0  0  0  0  0  0  0  0
    1.1457   -2.9619    0.5011 N   0  3  1  0  0  0  0  0  0  0  0  0
    0.6533   -2.6831    1.3369 H   0  0  0  0  0  0  0  0  0  0  0  0
  1  2  1  0  0  0  0
  1 12  1  0  0  0  0
  1 29  1  1  0  0  0
  2  3  1  0  0  0  0
  2 13  1  0  0  0  0
  2 14  1  0  0  0  0
  3  4  1  0  0  0  0
  3 11  1  0  0  0  0
  4  5  1  0  0  0  0
  4  9  2  0  0  0  0
  5 15  1  0  0  0  0
  5 16  1  0  0  0  0
  6  7  1  0  0  0  0
  6 17  1  0  0  0  0
  6 18  1  0  0  0  0
  7  8  1  0  0  0  0
  7 19  1  0  0  0  0
  7 20  1  0  0  0  0
  8 21  1  0  0  0  0
  8 22  1  0  0  0  0
  8 30  1  0  0  0  0
 10 23  1  0  0  0  0
 10 24  1  0  0  0  0
 10 25  1  0  0  0  0
 10 30  1  0  0  0  0
 11 26  1  0  0  0  0
 11 27  1  0  0  0  0
 11 28  1  0  0  0  0
 29  6  1  6  0  0  0
 29  5  1  0  0  0  0
 30  1  1  6  0  0  0
 30 31  1  0  0  0  0
M  CHG  1  30   1
M  END
>  <s_m_entry_id>
6966

>  <s_m_entry_name>
Schrodinger_fragment_499

>  <s_m_Source_Path>
/aloy/home/agimeno/Documents/Starting_Project/Part1_SMILES-to-signatures/1.2/Databases/Compounds/Fragment_library/Schrodinger

>  <s_m_Source_File>
schrodinger_fragment_collection_epik.maegz

>  <i_m_Source_File_Index>
597

>  <i_m_number_of_atoms>
32

>  <r_m_molecular_weight>
185.27128

>  <s_m_molecular_formula>
C9H19N3O1

>  <r_epik_Ionization_Penalty>
0.0054

>  <r_epik_Ionization_Penalty_Charging>
0.0032

>  <r_epik_Ionization_Penalty_Neutral>
0.0022

>  <r_epik_State_Penalty>
0.1490

>  <i_epik_Tot_Q>
1

>  <r_epik_Metal_State_Penalty>
0.1490

>  <b_epik_Metal_Only>
0

>  <s_canvas_Unique_SMILES_Stereo>
CN(C1)C(=O)CN([C@H]12)CCC[N@H+]2C

>  <s_m_subgroup_title>
schrodinger_fragment_collection_epik

>  <s_m_subgroupid>
schrodinger_fragment_collection_epik

>  <b_m_subgroup_collapsed>
0

$$$$
Schrodinger_fragment_250
 OpenBabel04062209313D
Schrodinger Suite 2020-2.
 29 30  0  0  1  0  0  0  0  0999 V2000
   -0.0302   -0.2449   -0.5504 C   0  0  0  0  0  0  0  0  0  0  0  0
   -0.3342   -1.4943    0.2834 C   0  0  0  0  0  0  0  0  0  0  0  0
    2.0484   -1.3639   -0.0873 C   0  0  1  0  0  0  0  0  0  0  0  0
    1.3320   -0.5362   -1.1727 C   0  0  0  0  0  0  0  0  0  0  0  0
    3.0937   -2.3272   -0.6522 C   0  0  0  0  0  0  0  0  0  0  0  0
    4.2611   -2.1998   -0.0115 N   0  0  0  0  0  0  0  0  0  0  0  0
    4.2253   -1.2137    1.0571 C   0  0  0  0  0  0  0  0  0  0  0  0
    2.8805   -0.4896    0.8855 C   0  0  0  0  0  0  0  0  0  0  0  0
    2.8499   -3.1392   -1.5497 O   0  0  0  0  0  0  0  0  0  0  0  0
    1.1399   -2.6455    1.9319 C   0  0  0  0  0  0  0  0  0  0  0  0
    5.4632   -2.9835   -0.2703 C   0  0  0  0  0  0  0  0  0  0  0  0
   -0.8015   -0.0356   -1.2924 H   0  0  0  0  0  0  0  0  0  0  0  0
    0.0434    0.6242    0.1051 H   0  0  0  0  0  0  0  0  0  0  0  0
   -0.8542   -1.2271    1.2047 H   0  0  0  0  0  0  0  0  0  0  0  0
   -0.9807   -2.1792   -0.2666 H   0  0  0  0  0  0  0  0  0  0  0  0
    1.1957   -1.1201   -2.0848 H   0  0  0  0  0  0  0  0  0  0  0  0
    1.8638    0.3731   -1.4539 H   0  0  0  0  0  0  0  0  0  0  0  0
    4.2787   -1.7206    2.0219 H   0  0  0  0  0  0  0  0  0  0  0  0
    5.0667   -0.5222    0.9913 H   0  0  0  0  0  0  0  0  0  0  0  0
    3.0757    0.4854    0.4379 H   0  0  0  0  0  0  0  0  0  0  0  0
    2.3959   -0.2777    1.8369 H   0  0  0  0  0  0  0  0  0  0  0  0
    2.1018   -3.1404    2.0658 H   0  0  0  0  0  0  0  0  0  0  0  0
    0.3656   -3.3726    2.1778 H   0  0  0  0  0  0  0  0  0  0  0  0
    1.0631   -1.8366    2.6579 H   0  0  0  0  0  0  0  0  0  0  0  0
    6.2745   -2.6981    0.4002 H   0  0  0  0  0  0  0  0  0  0  0  0
    5.8044   -2.8342   -1.2956 H   0  0  0  0  0  0  0  0  0  0  0  0
    5.2667   -4.0470   -0.1282 H   0  0  0  0  0  0  0  0  0  0  0  0
    0.9609   -2.1688    0.5377 N   0  3  1  0  0  0  0  0  0  0  0  0
    0.9423   -3.0030   -0.0340 H   0  0  0  0  0  0  0  0  0  0  0  0
  1  2  1  0  0  0  0
  1  4  1  0  0  0  0
  1 12  1  0  0  0  0
  1 13  1  0  0  0  0
  2 14  1  0  0  0  0
  2 15  1  0  0  0  0
  2 28  1  0  0  0  0
  3  4  1  0  0  0  0
  3  5  1  0  0  0  0
  3  8  1  0  0  0  0
  3 28  1  1  0  0  0
  4 16  1  0  0  0  0
  4 17  1  0  0  0  0
  5  6  1  0  0  0  0
  5  9  2  0  0  0  0
  6  7  1  0  0  0  0
  6 11  1  0  0  0  0
  7  8  1  0  0  0  0
  7 18  1  0  0  0  0
  7 19  1  0  0  0  0
  8 20  1  0  0  0  0
  8 21  1  0  0  0  0
 10 22  1  0  0  0  0
 10 23  1  0  0  0  0
 10 24  1  0  0  0  0
 10 28  1  0  0  0  0
 11 25  1  0  0  0  0
 11 26  1  0  0  0  0
 11 27  1  0  0  0  0
 28 29  1  6  0  0  0
M  CHG  1  28   1
M  END
>  <s_m_entry_id>
6692

>  <s_m_entry_name>
Schrodinger_fragment_311

>  <s_m_Source_Path>
/aloy/home/agimeno/Documents/Starting_Project/Part1_SMILES-to-signatures/1.2/Databases/Compounds/Fragment_library/Schrodinger

>  <s_m_Source_File>
schrodinger_fragment_collection_epik.maegz

>  <i_m_Source_File_Index>
323

>  <i_m_number_of_atoms>
29

>  <r_m_molecular_weight>
169.24864

>  <s_m_molecular_formula>
C9H17N2O1

>  <r_epik_Ionization_Penalty>
0.0004

>  <r_epik_Ionization_Penalty_Charging>
0.0004

>  <r_epik_Ionization_Penalty_Neutral>
0.0000

>  <r_epik_State_Penalty>
0.0000

>  <i_epik_Tot_Q>
1

>  <r_epik_Metal_State_Penalty>
0.0000

>  <b_epik_Metal_Only>
0

>  <s_canvas_Unique_SMILES_Stereo>
C1CN(C)C(=O)[C@]12CCC[N@@H+]2C

>  <s_m_subgroup_title>
schrodinger_fragment_collection_epik

>  <s_m_subgroupid>
schrodinger_fragment_collection_epik

>  <b_m_subgroup_collapsed>
0

$$$$
Schrodinger_fragment_52_a
 OpenBabel04062209313D
Schrodinger Suite 2020-2.
 16 16  0  0  1  0  0  0  0  0999 V2000
    0.2914   -2.1495   -0.4705 C   0  0  0  0  0  0  0  0  0  0  0  0
    0.1795   -3.4677    0.0158 C   0  0  0  0  0  0  0  0  0  0  0  0
    1.2870   -4.0971    0.6191 C   0  0  0  0  0  0  0  0  0  0  0  0
    2.5109   -3.4070    0.7378 C   0  0  0  0  0  0  0  0  0  0  0  0
    2.6241   -2.0867    0.2505 C   0  0  0  0  0  0  0  0  0  0  0  0
    1.5140   -1.4569   -0.3533 C   0  0  0  0  0  0  0  0  0  0  0  0
    4.1790   -1.1995    0.4172 S   0  0  0  0  0  0  0  0  0  0  0  0
    4.8416   -1.6642   -0.9671 N   0  5  0  0  0  0  0  0  0  0  0  0
    3.8683    0.2410    0.4212 O   0  0  0  0  0  0  0  0  0  0  0  0
    4.8861   -1.7630    1.5809 O   0  0  0  0  0  0  0  0  0  0  0  0
   -0.5609   -1.6700   -0.9335 H   0  0  0  0  0  0  0  0  0  0  0  0
   -0.7587   -3.9980   -0.0748 H   0  0  0  0  0  0  0  0  0  0  0  0
    1.1974   -5.1093    0.9908 H   0  0  0  0  0  0  0  0  0  0  0  0
    3.3674   -3.8809    1.1985 H   0  0  0  0  0  0  0  0  0  0  0  0
    1.6105   -0.4451   -0.7240 H   0  0  0  0  0  0  0  0  0  0  0  0
    5.7629   -1.2106   -0.9907 H   0  0  0  0  0  0  0  0  0  0  0  0
  1  2  2  0  0  0  0
  1  6  1  0  0  0  0
  1 11  1  0  0  0  0
  2  3  1  0  0  0  0
  2 12  1  0  0  0  0
  3  4  2  0  0  0  0
  3 13  1  0  0  0  0
  4  5  1  0  0  0  0
  4 14  1  0  0  0  0
  5  6  2  0  0  0  0
  5  7  1  0  0  0  0
  6 15  1  0  0  0  0
  7  8  1  0  0  0  0
  7  9  2  0  0  0  0
  7 10  2  0  0  0  0
  8 16  1  0  0  0  0
M  CHG  1   8  -1
M  END
>  <s_m_entry_id>
6429

>  <s_m_entry_name>
Schrodinger_fragment_53

>  <s_m_Source_Path>
/aloy/home/agimeno/Documents/Starting_Project/Part1_SMILES-to-signatures/1.2/Databases/Compounds/Fragment_library/Schrodinger

>  <s_m_Source_File>
schrodinger_fragment_collection_epik.maegz

>  <i_m_Source_File_Index>
60

>  <i_m_number_of_atoms>
17

>  <r_m_molecular_weight>
157.19219

>  <s_m_molecular_formula>
C6H7N1O2S1

>  <r_epik_Ionization_Penalty>
4.1206

>  <r_epik_Ionization_Penalty_Charging>
4.1206

>  <r_epik_Ionization_Penalty_Neutral>
0.0000

>  <r_epik_State_Penalty>
4.1200

>  <i_epik_Tot_Q>
-1

>  <r_epik_Metal_State_Penalty>
0.4245

>  <b_epik_Metal_Only>
1

>  <s_canvas_Unique_SMILES_Stereo>
[NH-]S(=O)(=O)c1ccccc1

>  <s_m_subgroup_title>
schrodinger_fragment_collection_epik

>  <s_m_subgroupid>
schrodinger_fragment_collection_epik

>  <b_m_subgroup_collapsed>
0

$$$$
Schrodinger_fragment_351_a
 OpenBabel04062209313D
Schrodinger Suite 2020-2.
 36 37  0  0  1  0  0  0  0  0999 V2000
    2.3906   -1.8849    1.0095 C   0  0  0  0  0  0  0  0  0  0  0  0
    3.6864   -2.3255    0.3013 C   0  0  0  0  0  0  0  0  0  0  0  0
    4.3644   -1.1806   -0.4976 C   0  0  0  0  0  0  0  0  0  0  0  0
    3.2699   -0.5646   -1.4025 C   0  0  0  0  0  0  0  0  0  0  0  0
    1.9941   -0.1793   -0.6304 C   0  0  0  0  0  0  0  0  0  0  0  0
    5.5013   -1.7315   -1.3936 C   0  0  0  0  0  0  0  0  0  0  0  0
    6.7347   -2.2002   -0.5964 C   0  0  0  0  0  0  0  0  0  0  0  0
    6.2357   -0.5787    1.1869 C   0  0  0  0  0  0  0  0  0  0  0  0
    4.9872   -0.0945    0.4214 C   0  0  0  0  0  0  0  0  0  0  0  0
    0.1989   -0.9946    0.7105 C   0  0  0  0  0  0  0  0  0  0  0  0
    8.5035   -1.5144    0.9733 C   0  0  0  0  0  0  0  0  0  0  0  0
    1.9545   -2.7443    1.5224 H   0  0  0  0  0  0  0  0  0  0  0  0
    2.6042   -1.1409    1.7790 H   0  0  0  0  0  0  0  0  0  0  0  0
    4.3655   -2.7513    1.0394 H   0  0  0  0  0  0  0  0  0  0  0  0
    3.4449   -3.1479   -0.3744 H   0  0  0  0  0  0  0  0  0  0  0  0
    3.6568    0.3137   -1.9216 H   0  0  0  0  0  0  0  0  0  0  0  0
    3.0000   -1.2725   -2.1884 H   0  0  0  0  0  0  0  0  0  0  0  0
    2.2054    0.6081    0.0956 H   0  0  0  0  0  0  0  0  0  0  0  0
    1.2631    0.2304   -1.3301 H   0  0  0  0  0  0  0  0  0  0  0  0
    5.1349   -2.5561   -2.0068 H   0  0  0  0  0  0  0  0  0  0  0  0
    5.8163   -0.9613   -2.0996 H   0  0  0  0  0  0  0  0  0  0  0  0
    6.4861   -3.0700    0.0131 H   0  0  0  0  0  0  0  0  0  0  0  0
    7.5095   -2.5251   -1.2921 H   0  0  0  0  0  0  0  0  0  0  0  0
    6.6546    0.2546    1.7527 H   0  0  0  0  0  0  0  0  0  0  0  0
    5.9630   -1.3380    1.9207 H   0  0  0  0  0  0  0  0  0  0  0  0
    5.2692    0.7707   -0.1807 H   0  0  0  0  0  0  0  0  0  0  0  0
    4.2572    0.2811    1.1379 H   0  0  0  0  0  0  0  0  0  0  0  0
   -0.5364   -0.6110    0.0011 H   0  0  0  0  0  0  0  0  0  0  0  0
    0.3660   -0.2268    1.4686 H   0  0  0  0  0  0  0  0  0  0  0  0
   -0.2460   -1.8610    1.2028 H   0  0  0  0  0  0  0  0  0  0  0  0
    8.9130   -0.6785    1.5411 H   0  0  0  0  0  0  0  0  0  0  0  0
    9.2693   -1.8368    0.2673 H   0  0  0  0  0  0  0  0  0  0  0  0
    8.3158   -2.3348    1.6668 H   0  0  0  0  0  0  0  0  0  0  0  0
    1.4366   -1.3617    0.0294 N   0  0  0  0  0  0  0  0  0  0  0  0
    7.2665   -1.1164    0.2654 N   0  3  0  0  0  0  0  0  0  0  0  0
    7.5321   -0.3604   -0.3483 H   0  0  0  0  0  0  0  0  0  0  0  0
  1  2  1  0  0  0  0
  1 12  1  0  0  0  0
  1 13  1  0  0  0  0
  1 34  1  0  0  0  0
  2  3  1  0  0  0  0
  2 14  1  0  0  0  0
  2 15  1  0  0  0  0
  3  4  1  0  0  0  0
  3  6  1  0  0  0  0
  3  9  1  0  0  0  0
  4  5  1  0  0  0  0
  4 16  1  0  0  0  0
  4 17  1  0  0  0  0
  5 18  1  0  0  0  0
  5 19  1  0  0  0  0
  5 34  1  0  0  0  0
  6  7  1  0  0  0  0
  6 20  1  0  0  0  0
  6 21  1  0  0  0  0
  7 22  1  0  0  0  0
  7 23  1  0  0  0  0
  7 35  1  0  0  0  0
  8  9  1  0  0  0  0
  8 24  1  0  0  0  0
  8 25  1  0  0  0  0
  8 35  1  0  0  0  0
  9 26  1  0  0  0  0
  9 27  1  0  0  0  0
 10 28  1  0  0  0  0
 10 29  1  0  0  0  0
 10 30  1  0  0  0  0
 10 34  1  0  0  0  0
 11 31  1  0  0  0  0
 11 32  1  0  0  0  0
 11 33  1  0  0  0  0
 11 35  1  0  0  0  0
 35 36  1  0  0  0  0
M  CHG  1  35   1
M  END
>  <s_m_entry_id>
6873

>  <s_m_entry_name>
Schrodinger_fragment_438

>  <s_m_Source_Path>
/aloy/home/agimeno/Documents/Starting_Project/Part1_SMILES-to-signatures/1.2/Databases/Compounds/Fragment_library/Schrodinger

>  <s_m_Source_File>
schrodinger_fragment_collection_epik.maegz

>  <i_m_Source_File_Index>
504

>  <i_m_number_of_atoms>
37

>  <r_m_molecular_weight>
184.32733

>  <s_m_molecular_formula>
C11H24N2

>  <r_epik_Ionization_Penalty>
2.5349

>  <r_epik_Ionization_Penalty_Charging>
0.0007

>  <r_epik_Ionization_Penalty_Neutral>
2.5342

>  <r_epik_State_Penalty>
2.5342

>  <i_epik_Tot_Q>
1

>  <r_epik_Metal_State_Penalty>
2.5342

>  <b_epik_Metal_Only>
0

>  <s_canvas_Unique_SMILES_Stereo>
C1CN(C)CC[C@]12CC[N@H+](C)CC2

>  <s_m_subgroup_title>
schrodinger_fragment_collection_epik

>  <s_m_subgroupid>
schrodinger_fragment_collection_epik

>  <b_m_subgroup_collapsed>
0

$$$$
Schrodinger_fragment_252
 OpenBabel04062209313D
Schrodinger Suite 2020-2.
 26 27  0  0  1  0  0  0  0  0999 V2000
    0.0230   -0.4837   -0.5374 C   0  0  0  0  0  0  0  0  0  0  0  0
   -0.1978   -1.4012    0.6692 C   0  0  0  0  0  0  0  0  0  0  0  0
    2.1565   -1.3430    0.1760 C   0  0  1  0  0  0  0  0  0  0  0  0
    1.3664   -0.9538   -1.0906 C   0  0  0  0  0  0  0  0  0  0  0  0
    3.1452   -2.4798   -0.0641 C   0  0  0  0  0  0  0  0  0  0  0  0
    4.4059   -2.0385    0.0094 N   0  0  0  0  0  0  0  0  0  0  0  0
    4.4891   -0.6129    0.2867 C   0  0  0  0  0  0  0  0  0  0  0  0
    3.0647   -0.2138    0.7053 C   0  0  0  0  0  0  0  0  0  0  0  0
    2.7966   -3.6488   -0.2566 O   0  0  0  0  0  0  0  0  0  0  0  0
    5.6070   -2.8501   -0.1490 C   0  0  0  0  0  0  0  0  0  0  0  0
   -0.7851   -0.5410   -1.2679 H   0  0  0  0  0  0  0  0  0  0  0  0
    0.1006    0.5539   -0.2076 H   0  0  0  0  0  0  0  0  0  0  0  0
   -0.7901   -0.9229    1.4504 H   0  0  0  0  0  0  0  0  0  0  0  0
   -0.7235   -2.3067    0.3628 H   0  0  0  0  0  0  0  0  0  0  0  0
    1.2143   -1.8193   -1.7385 H   0  0  0  0  0  0  0  0  0  0  0  0
    1.8632   -0.1868   -1.6859 H   0  0  0  0  0  0  0  0  0  0  0  0
    5.2185   -0.3925    1.0677 H   0  0  0  0  0  0  0  0  0  0  0  0
    4.7921   -0.0873   -0.6206 H   0  0  0  0  0  0  0  0  0  0  0  0
    2.7915    0.7682    0.3174 H   0  0  0  0  0  0  0  0  0  0  0  0
    3.0134   -0.1500    1.7932 H   0  0  0  0  0  0  0  0  0  0  0  0
    6.5048   -2.2312   -0.1538 H   0  0  0  0  0  0  0  0  0  0  0  0
    5.5768   -3.4052   -1.0877 H   0  0  0  0  0  0  0  0  0  0  0  0
    5.6941   -3.5673    0.6682 H   0  0  0  0  0  0  0  0  0  0  0  0
    1.1458   -1.7815    1.1576 N   0  3  0  0  0  0  0  0  0  0  0  0
    1.3447   -1.3980    2.0664 H   0  0  0  0  0  0  0  0  0  0  0  0
    1.2164   -2.7872    1.2132 H   0  0  0  0  0  0  0  0  0  0  0  0
  1  2  1  0  0  0  0
  1  4  1  0  0  0  0
  1 11  1  0  0  0  0
  1 12  1  0  0  0  0
  2 13  1  0  0  0  0
  2 14  1  0  0  0  0
  2 24  1  0  0  0  0
  3  4  1  0  0  0  0
  3  5  1  6  0  0  0
  3  8  1  0  0  0  0
  3 24  1  0  0  0  0
  4 15  1  0  0  0  0
  4 16  1  0  0  0  0
  5  6  1  0  0  0  0
  5  9  2  0  0  0  0
  6  7  1  0  0  0  0
  6 10  1  0  0  0  0
  7  8  1  0  0  0  0
  7 17  1  0  0  0  0
  7 18  1  0  0  0  0
  8 19  1  0  0  0  0
  8 20  1  0  0  0  0
 10 21  1  0  0  0  0
 10 22  1  0  0  0  0
 10 23  1  0  0  0  0
 24 25  1  0  0  0  0
 24 26  1  0  0  0  0
M  CHG  1  24   1
M  END
>  <s_m_entry_id>
6694

>  <s_m_entry_name>
Schrodinger_fragment_313

>  <s_m_Source_Path>
/aloy/home/agimeno/Documents/Starting_Project/Part1_SMILES-to-signatures/1.2/Databases/Compounds/Fragment_library/Schrodinger

>  <s_m_Source_File>
schrodinger_fragment_collection_epik.maegz

>  <i_m_Source_File_Index>
325

>  <i_m_number_of_atoms>
26

>  <r_m_molecular_weight>
155.22155

>  <s_m_molecular_formula>
C8H15N2O1

>  <r_epik_Ionization_Penalty>
0.0015

>  <r_epik_Ionization_Penalty_Charging>
0.0015

>  <r_epik_Ionization_Penalty_Neutral>
0.0000

>  <r_epik_State_Penalty>
0.0000

>  <i_epik_Tot_Q>
1

>  <r_epik_Metal_State_Penalty>
0.0000

>  <b_epik_Metal_Only>
0

>  <s_canvas_Unique_SMILES_Stereo>
C1CN(C)C(=O)[C@]12CCC[NH2+]2

>  <s_m_subgroup_title>
schrodinger_fragment_collection_epik

>  <s_m_subgroupid>
schrodinger_fragment_collection_epik

>  <b_m_subgroup_collapsed>
0

$$$$
Schrodinger_fragment_71
 OpenBabel04062209313D
Schrodinger Suite 2020-2.
 22 22  0  0  1  0  0  0  0  0999 V2000
    5.9024   -6.2451    1.3379 C   0  0  0  0  0  0  0  0  0  0  0  0
    5.7959   -7.6819    1.0043 N   0  0  0  0  0  0  0  0  0  0  0  0
    7.0192   -8.2694    0.4166 C   0  0  0  0  0  0  0  0  0  0  0  0
    7.6072   -7.3710   -0.6911 C   0  0  0  0  0  0  0  0  0  0  0  0
    6.5415   -5.4391    0.1881 C   0  0  0  0  0  0  0  0  0  0  0  0
    4.2573   -8.3220    0.5461 S   0  0  0  0  0  0  0  0  0  0  0  0
    4.0007   -7.6973   -1.1376 C   0  0  0  0  0  0  0  0  0  0  0  0
    3.2477   -7.7190    1.4292 O   0  0  0  0  0  0  0  0  0  0  0  0
    4.3879   -9.7858    0.4885 O   0  0  0  0  0  0  0  0  0  0  0  0
    4.9207   -5.8348    1.5788 H   0  0  0  0  0  0  0  0  0  0  0  0
    6.4998   -6.1394    2.2446 H   0  0  0  0  0  0  0  0  0  0  0  0
    7.7544   -8.4136    1.2096 H   0  0  0  0  0  0  0  0  0  0  0  0
    6.8123   -9.2637    0.0182 H   0  0  0  0  0  0  0  0  0  0  0  0
    8.5585   -7.7868   -1.0280 H   0  0  0  0  0  0  0  0  0  0  0  0
    6.9566   -7.3460   -1.5662 H   0  0  0  0  0  0  0  0  0  0  0  0
    5.8804   -5.3950   -0.6783 H   0  0  0  0  0  0  0  0  0  0  0  0
    6.6943   -4.4075    0.5101 H   0  0  0  0  0  0  0  0  0  0  0  0
    3.0418   -8.0613   -1.5000 H   0  0  0  0  0  0  0  0  0  0  0  0
    4.7865   -8.0632   -1.7921 H   0  0  0  0  0  0  0  0  0  0  0  0
    3.9855   -6.6112   -1.1313 H   0  0  0  0  0  0  0  0  0  0  0  0
    7.8279   -6.0181   -0.1882 N   0  0  0  0  0  0  0  0  0  0  0  0
    8.3877   -6.0943    0.6576 H   0  0  0  0  0  0  0  0  0  0  0  0
  1  2  1  0  0  0  0
  1  5  1  0  0  0  0
  1 10  1  0  0  0  0
  1 11  1  0  0  0  0
  2  3  1  0  0  0  0
  2  6  1  0  0  0  0
  3  4  1  0  0  0  0
  3 12  1  0  0  0  0
  3 13  1  0  0  0  0
  4 14  1  0  0  0  0
  4 15  1  0  0  0  0
  4 21  1  0  0  0  0
  5 16  1  0  0  0  0
  5 17  1  0  0  0  0
  5 21  1  0  0  0  0
  6  7  1  0  0  0  0
  6  8  2  0  0  0  0
  6  9  2  0  0  0  0
  7 18  1  0  0  0  0
  7 19  1  0  0  0  0
  7 20  1  0  0  0  0
 21 22  1  0  0  0  0
M  END
>  <s_m_entry_id>
6455

>  <s_m_entry_name>
Schrodinger_fragment_80

>  <s_m_Source_Path>
/aloy/home/agimeno/Documents/Starting_Project/Part1_SMILES-to-signatures/1.2/Databases/Compounds/Fragment_library/Schrodinger

>  <s_m_Source_File>
schrodinger_fragment_collection_epik.maegz

>  <i_m_Source_File_Index>
86

>  <i_m_number_of_atoms>
23

>  <r_m_molecular_weight>
165.23556

>  <s_m_molecular_formula>
C5H13N2O2S1

>  <r_epik_Ionization_Penalty>
0.2007

>  <r_epik_Ionization_Penalty_Charging>
0.0000

>  <r_epik_Ionization_Penalty_Neutral>
0.2007

>  <r_epik_State_Penalty>
0.2007

>  <i_epik_Tot_Q>
0

>  <r_epik_Metal_State_Penalty>
0.2007

>  <b_epik_Metal_Only>
0

>  <s_canvas_Unique_SMILES_Stereo>
CS(=O)(=O)N1CCNCC1

>  <s_m_subgroup_title>
schrodinger_fragment_collection_epik

>  <s_m_subgroupid>
schrodinger_fragment_collection_epik

>  <b_m_subgroup_collapsed>
0

$$$$
Schrodinger_fragment_71_a
 OpenBabel04062209313D
Schrodinger Suite 2020-2.
 23 23  0  0  1  0  0  0  0  0999 V2000
    5.9088   -6.2498    1.3568 C   0  0  0  0  0  0  0  0  0  0  0  0
    5.7846   -7.6780    0.9823 N   0  0  0  0  0  0  0  0  0  0  0  0
    7.0259   -8.2737    0.4349 C   0  0  0  0  0  0  0  0  0  0  0  0
    7.6216   -7.4047   -0.6915 C   0  0  0  0  0  0  0  0  0  0  0  0
    6.5243   -5.4167    0.2140 C   0  0  0  0  0  0  0  0  0  0  0  0
    4.2455   -8.3181    0.5224 S   0  0  0  0  0  0  0  0  0  0  0  0
    3.9829   -7.6960   -1.1619 C   0  0  0  0  0  0  0  0  0  0  0  0
    3.2369   -7.7145    1.4062 O   0  0  0  0  0  0  0  0  0  0  0  0
    4.3779   -9.7816    0.4649 O   0  0  0  0  0  0  0  0  0  0  0  0
    4.9363   -5.8416    1.6340 H   0  0  0  0  0  0  0  0  0  0  0  0
    6.5313   -6.1732    2.2491 H   0  0  0  0  0  0  0  0  0  0  0  0
    7.7502   -8.3815    1.2433 H   0  0  0  0  0  0  0  0  0  0  0  0
    6.8355   -9.2825    0.0668 H   0  0  0  0  0  0  0  0  0  0  0  0
    8.5871   -7.8074   -1.0001 H   0  0  0  0  0  0  0  0  0  0  0  0
    6.9854   -7.4248   -1.5760 H   0  0  0  0  0  0  0  0  0  0  0  0
    5.8357   -5.3418   -0.6273 H   0  0  0  0  0  0  0  0  0  0  0  0
    6.7042   -4.3960    0.5538 H   0  0  0  0  0  0  0  0  0  0  0  0
    3.0225   -8.0646   -1.5163 H   0  0  0  0  0  0  0  0  0  0  0  0
    4.7602   -8.0653   -1.8243 H   0  0  0  0  0  0  0  0  0  0  0  0
    3.9572   -6.6103   -1.1617 H   0  0  0  0  0  0  0  0  0  0  0  0
    7.7981   -6.0097   -0.2403 N   0  3  0  0  0  0  0  0  0  0  0  0
    8.4658   -5.9841    0.5124 H   0  0  0  0  0  0  0  0  0  0  0  0
    8.1693   -5.4599   -0.9977 H   0  0  0  0  0  0  0  0  0  0  0  0
  1  2  1  0  0  0  0
  1  5  1  0  0  0  0
  1 10  1  0  0  0  0
  1 11  1  0  0  0  0
  2  3  1  0  0  0  0
  2  6  1  0  0  0  0
  3  4  1  0  0  0  0
  3 12  1  0  0  0  0
  3 13  1  0  0  0  0
  4 14  1  0  0  0  0
  4 15  1  0  0  0  0
  4 21  1  0  0  0  0
  5 16  1  0  0  0  0
  5 17  1  0  0  0  0
  5 21  1  0  0  0  0
  6  7  1  0  0  0  0
  6  8  2  0  0  0  0
  6  9  2  0  0  0  0
  7 18  1  0  0  0  0
  7 19  1  0  0  0  0
  7 20  1  0  0  0  0
 21 22  1  0  0  0  0
 21 23  1  0  0  0  0
M  CHG  1  21   1
M  END
>  <s_m_entry_id>
6456

>  <s_m_entry_name>
Schrodinger_fragment_80

>  <s_m_Source_Path>
/aloy/home/agimeno/Documents/Starting_Project/Part1_SMILES-to-signatures/1.2/Databases/Compounds/Fragment_library/Schrodinger

>  <s_m_Source_File>
schrodinger_fragment_collection_epik.maegz

>  <i_m_Source_File_Index>
87

>  <i_m_number_of_atoms>
23

>  <r_m_molecular_weight>
165.23556

>  <s_m_molecular_formula>
C5H13N2O2S1

>  <r_epik_Ionization_Penalty>
1.4779

>  <r_epik_Ionization_Penalty_Charging>
1.4779

>  <r_epik_Ionization_Penalty_Neutral>
0.0000

>  <r_epik_State_Penalty>
0.7389

>  <i_epik_Tot_Q>
1

>  <r_epik_Metal_State_Penalty>
0.7389

>  <b_epik_Metal_Only>
0

>  <s_canvas_Unique_SMILES_Stereo>
CS(=O)(=O)N1CC[NH2+]CC1

>  <s_m_subgroup_title>
schrodinger_fragment_collection_epik

>  <s_m_subgroupid>
schrodinger_fragment_collection_epik

>  <b_m_subgroup_collapsed>
0

$$$$
Schrodinger_fragment_169
 OpenBabel04062209313D
Schrodinger Suite 2020-2.
 18 18  0  0  1  0  0  0  0  0999 V2000
   -0.3017    0.4141    0.3489 C   0  0  0  0  0  0  0  0  0  0  0  0
   -0.7322   -0.8882    0.0284 C   0  0  0  0  0  0  0  0  0  0  0  0
    0.2129   -1.8816   -0.2940 C   0  0  0  0  0  0  0  0  0  0  0  0
    1.5889   -1.5740   -0.2960 C   0  0  0  0  0  0  0  0  0  0  0  0
    2.0256   -0.2687    0.0241 C   0  0  0  0  0  0  0  0  0  0  0  0
    1.0736    0.7246    0.3466 C   0  0  0  0  0  0  0  0  0  0  0  0
    3.4544    0.0520    0.0213 C   0  0  0  0  0  0  0  0  0  0  0  0
    4.3392   -0.7918    0.5467 N   0  0  0  0  0  0  0  0  0  0  0  0
   -1.0289    1.1745    0.5984 H   0  0  0  0  0  0  0  0  0  0  0  0
   -1.7869   -1.1251    0.0301 H   0  0  0  0  0  0  0  0  0  0  0  0
   -0.1198   -2.8802   -0.5417 H   0  0  0  0  0  0  0  0  0  0  0  0
    2.3055   -2.3423   -0.5534 H   0  0  0  0  0  0  0  0  0  0  0  0
    1.3930    1.7256    0.6034 H   0  0  0  0  0  0  0  0  0  0  0  0
    4.8629    1.4528   -0.5247 H   0  0  0  0  0  0  0  0  0  0  0  0
    5.3311   -0.6133    0.5589 H   0  0  0  0  0  0  0  0  0  0  0  0
    4.0032   -1.6329    0.9933 H   0  0  0  0  0  0  0  0  0  0  0  0
    3.8893    1.1936   -0.5081 N   0  3  0  0  0  0  0  0  0  0  0  0
    3.2223    1.8066   -0.9538 H   0  0  0  0  0  0  0  0  0  0  0  0
  1  2  2  0  0  0  0
  1  6  1  0  0  0  0
  1  9  1  0  0  0  0
  2  3  1  0  0  0  0
  2 10  1  0  0  0  0
  3  4  2  0  0  0  0
  3 11  1  0  0  0  0
  4  5  1  0  0  0  0
  4 12  1  0  0  0  0
  5  6  2  0  0  0  0
  5  7  1  0  0  0  0
  6 13  1  0  0  0  0
  7  8  1  0  0  0  0
  7 17  2  0  0  0  0
  8 15  1  0  0  0  0
  8 16  1  0  0  0  0
 14 17  1  0  0  0  0
 17 18  1  0  0  0  0
M  CHG  1  17   1
M  END
>  <s_m_entry_id>
6582

>  <s_m_entry_name>
Schrodinger_fragment_224

>  <s_m_Source_Path>
/aloy/home/agimeno/Documents/Starting_Project/Part1_SMILES-to-signatures/1.2/Databases/Compounds/Fragment_library/Schrodinger

>  <s_m_Source_File>
schrodinger_fragment_collection_epik.maegz

>  <i_m_Source_File_Index>
213

>  <i_m_number_of_atoms>
18

>  <r_m_molecular_weight>
121.16318

>  <s_m_molecular_formula>
C7H9N2

>  <r_epik_Ionization_Penalty>
0.0027

>  <r_epik_Ionization_Penalty_Charging>
0.0013

>  <r_epik_Ionization_Penalty_Neutral>
0.0013

>  <r_epik_State_Penalty>
0.0000

>  <i_epik_Tot_Q>
1

>  <r_epik_Metal_State_Penalty>
0.0000

>  <b_epik_Metal_Only>
0

>  <s_canvas_Unique_SMILES_Stereo>
NC(=[NH2+])c1ccccc1

>  <s_m_subgroup_title>
schrodinger_fragment_collection_epik

>  <s_m_subgroupid>
schrodinger_fragment_collection_epik

>  <b_m_subgroup_collapsed>
0

$$$$
Schrodinger_fragment_290_a
 OpenBabel04062209313D
Schrodinger Suite 2020-2.
 30 31  0  0  1  0  0  0  0  0999 V2000
    1.1062   -2.4512   -0.9705 C   0  0  0  0  0  0  0  0  0  0  0  0
    1.8040   -1.5400   -1.6394 N   0  0  0  0  0  0  0  0  0  0  0  0
    1.9259   -3.0560   -0.0910 N   0  0  0  0  0  0  0  0  0  0  0  0
    3.2909   -2.5238   -0.1561 C   0  0  1  0  0  0  0  0  0  0  0  0
    3.0709   -1.4872   -1.2618 C   0  0  0  0  0  0  0  0  0  0  0  0
    3.7223   -1.8750    1.1835 C   0  0  0  0  0  0  0  0  0  0  0  0
    5.1959   -1.4147    1.1797 C   0  0  0  0  0  0  0  0  0  0  0  0
    5.7748   -3.1071   -0.5220 C   0  0  0  0  0  0  0  0  0  0  0  0
    4.3164   -3.6121   -0.5633 C   0  0  0  0  0  0  0  0  0  0  0  0
    3.9352   -0.7347   -1.7165 O   0  0  0  0  0  0  0  0  0  0  0  0
   -0.0909   -2.6947   -1.1346 O   0  0  0  0  0  0  0  0  0  0  0  0
    1.5200   -4.1192    0.8283 C   0  0  0  0  0  0  0  0  0  0  0  0
    7.5377   -2.1150    0.8819 C   0  0  0  0  0  0  0  0  0  0  0  0
    1.4083   -0.9544   -2.3559 H   0  0  0  0  0  0  0  0  0  0  0  0
    3.0816   -1.0227    1.4155 H   0  0  0  0  0  0  0  0  0  0  0  0
    3.5801   -2.5787    2.0034 H   0  0  0  0  0  0  0  0  0  0  0  0
    5.3354   -0.5695    0.5046 H   0  0  0  0  0  0  0  0  0  0  0  0
    5.4580   -1.0517    2.1745 H   0  0  0  0  0  0  0  0  0  0  0  0
    6.4463   -3.9412   -0.7308 H   0  0  0  0  0  0  0  0  0  0  0  0
    5.9525   -2.3735   -1.3093 H   0  0  0  0  0  0  0  0  0  0  0  0
    4.2287   -4.4750    0.0964 H   0  0  0  0  0  0  0  0  0  0  0  0
    4.0951   -3.9858   -1.5644 H   0  0  0  0  0  0  0  0  0  0  0  0
    2.3424   -4.4678    1.4521 H   0  0  0  0  0  0  0  0  0  0  0  0
    1.1381   -4.9765    0.2721 H   0  0  0  0  0  0  0  0  0  0  0  0
    0.7273   -3.7668    1.4897 H   0  0  0  0  0  0  0  0  0  0  0  0
    8.1948   -2.9588    0.6696 H   0  0  0  0  0  0  0  0  0  0  0  0
    7.7826   -1.7536    1.8811 H   0  0  0  0  0  0  0  0  0  0  0  0
    7.7667   -1.3211    0.1700 H   0  0  0  0  0  0  0  0  0  0  0  0
    6.1157   -2.5177    0.7986 N   0  3  1  0  0  0  0  0  0  0  0  0
    6.0025   -3.2482    1.4867 H   0  0  0  0  0  0  0  0  0  0  0  0
  1  2  1  0  0  0  0
  1  3  1  0  0  0  0
  1 11  2  0  0  0  0
  2  5  1  0  0  0  0
  2 14  1  0  0  0  0
  3  4  1  0  0  0  0
  3 12  1  0  0  0  0
  4  5  1  6  0  0  0
  4  6  1  0  0  0  0
  4  9  1  0  0  0  0
  5 10  2  0  0  0  0
  6  7  1  0  0  0  0
  6 15  1  0  0  0  0
  6 16  1  0  0  0  0
  7 17  1  0  0  0  0
  7 18  1  0  0  0  0
  7 29  1  0  0  0  0
  8  9  1  0  0  0  0
  8 19  1  0  0  0  0
  8 20  1  0  0  0  0
  8 29  1  0  0  0  0
  9 21  1  0  0  0  0
  9 22  1  0  0  0  0
 12 23  1  0  0  0  0
 12 24  1  0  0  0  0
 12 25  1  0  0  0  0
 13 26  1  0  0  0  0
 13 27  1  0  0  0  0
 13 28  1  0  0  0  0
 13 29  1  0  0  0  0
 29 30  1  1  0  0  0
M  CHG  1  29   1
M  END
>  <s_m_entry_id>
6749

>  <s_m_entry_name>
Schrodinger_fragment_351

>  <s_m_Source_Path>
/aloy/home/agimeno/Documents/Starting_Project/Part1_SMILES-to-signatures/1.2/Databases/Compounds/Fragment_library/Schrodinger

>  <s_m_Source_File>
schrodinger_fragment_collection_epik.maegz

>  <i_m_Source_File_Index>
380

>  <i_m_number_of_atoms>
30

>  <r_m_molecular_weight>
198.24677

>  <s_m_molecular_formula>
C9H16N3O2

>  <r_epik_Ionization_Penalty>
0.8782

>  <r_epik_Ionization_Penalty_Charging>
0.0004

>  <r_epik_Ionization_Penalty_Neutral>
0.8778

>  <r_epik_State_Penalty>
0.8778

>  <i_epik_Tot_Q>
1

>  <r_epik_Metal_State_Penalty>
4.8180

>  <b_epik_Metal_Only>
0

>  <s_canvas_Unique_SMILES_Stereo>
CN1C(=O)NC(=O)C12CC[NH+](C)CC2

>  <s_m_subgroup_title>
schrodinger_fragment_collection_epik

>  <s_m_subgroupid>
schrodinger_fragment_collection_epik

>  <b_m_subgroup_collapsed>
0

$$$$
Schrodinger_fragment_258
 OpenBabel04062209313D
Schrodinger Suite 2020-2.
 26 27  0  0  1  0  0  0  0  0999 V2000
    0.0243   -0.5220    0.5924 C   0  0  0  0  0  0  0  0  0  0  0  0
   -0.1988   -1.4426   -0.6113 C   0  0  0  0  0  0  0  0  0  0  0  0
    2.1565   -1.3833   -0.1231 C   0  0  2  0  0  0  0  0  0  0  0  0
    1.3689   -0.9907    1.1441 C   0  0  0  0  0  0  0  0  0  0  0  0
    3.1449   -2.5201    0.1180 C   0  0  0  0  0  0  0  0  0  0  0  0
    4.4057   -2.0797    0.0416 N   0  0  0  0  0  0  0  0  0  0  0  0
    4.4893   -0.6549   -0.2395 C   0  0  0  0  0  0  0  0  0  0  0  0
    3.0644   -0.2560   -0.6567 C   0  0  0  0  0  0  0  0  0  0  0  0
    2.7959   -3.6885    0.3138 O   0  0  0  0  0  0  0  0  0  0  0  0
    5.6065   -2.8916    0.2003 C   0  0  0  0  0  0  0  0  0  0  0  0
    0.1013    0.5148    0.2599 H   0  0  0  0  0  0  0  0  0  0  0  0
   -0.7822   -0.5775    1.3248 H   0  0  0  0  0  0  0  0  0  0  0  0
   -0.7232   -2.3477   -0.3013 H   0  0  0  0  0  0  0  0  0  0  0  0
   -0.7933   -0.9667   -1.3922 H   0  0  0  0  0  0  0  0  0  0  0  0
    1.8669   -0.2221    1.7363 H   0  0  0  0  0  0  0  0  0  0  0  0
    1.2181   -1.8544    1.7947 H   0  0  0  0  0  0  0  0  0  0  0  0
    4.7943   -0.1271    0.6659 H   0  0  0  0  0  0  0  0  0  0  0  0
    5.2174   -0.4370   -1.0224 H   0  0  0  0  0  0  0  0  0  0  0  0
    3.0114   -0.1948   -1.7446 H   0  0  0  0  0  0  0  0  0  0  0  0
    2.7925    0.7272   -0.2707 H   0  0  0  0  0  0  0  0  0  0  0  0
    6.5046   -2.2730    0.2036 H   0  0  0  0  0  0  0  0  0  0  0  0
    5.6927   -3.6101   -0.6158 H   0  0  0  0  0  0  0  0  0  0  0  0
    5.5768   -3.4452    1.1399 H   0  0  0  0  0  0  0  0  0  0  0  0
    1.1438   -1.8235   -1.1019 N   0  3  0  0  0  0  0  0  0  0  0  0
    1.2145   -2.8292   -1.1563 H   0  0  0  0  0  0  0  0  0  0  0  0
    1.3407   -1.4410   -2.0115 H   0  0  0  0  0  0  0  0  0  0  0  0
  1  2  1  0  0  0  0
  1  4  1  0  0  0  0
  1 11  1  0  0  0  0
  1 12  1  0  0  0  0
  2 13  1  0  0  0  0
  2 14  1  0  0  0  0
  2 24  1  0  0  0  0
  3  4  1  0  0  0  0
  3  5  1  1  0  0  0
  3  8  1  0  0  0  0
  3 24  1  0  0  0  0
  4 15  1  0  0  0  0
  4 16  1  0  0  0  0
  5  6  1  0  0  0  0
  5  9  2  0  0  0  0
  6  7  1  0  0  0  0
  6 10  1  0  0  0  0
  7  8  1  0  0  0  0
  7 17  1  0  0  0  0
  7 18  1  0  0  0  0
  8 19  1  0  0  0  0
  8 20  1  0  0  0  0
 10 21  1  0  0  0  0
 10 22  1  0  0  0  0
 10 23  1  0  0  0  0
 24 25  1  0  0  0  0
 24 26  1  0  0  0  0
M  CHG  1  24   1
M  END
>  <s_m_entry_id>
6703

>  <s_m_entry_name>
Schrodinger_fragment_319

>  <s_m_Source_Path>
/aloy/home/agimeno/Documents/Starting_Project/Part1_SMILES-to-signatures/1.2/Databases/Compounds/Fragment_library/Schrodinger

>  <s_m_Source_File>
schrodinger_fragment_collection_epik.maegz

>  <i_m_Source_File_Index>
334

>  <i_m_number_of_atoms>
26

>  <r_m_molecular_weight>
155.22155

>  <s_m_molecular_formula>
C8H15N2O1

>  <r_epik_Ionization_Penalty>
0.0015

>  <r_epik_Ionization_Penalty_Charging>
0.0015

>  <r_epik_Ionization_Penalty_Neutral>
0.0000

>  <r_epik_State_Penalty>
0.0000

>  <i_epik_Tot_Q>
1

>  <r_epik_Metal_State_Penalty>
0.0000

>  <b_epik_Metal_Only>
0

>  <s_canvas_Unique_SMILES_Stereo>
C1CN(C)C(=O)[C@@]12CCC[NH2+]2

>  <s_m_subgroup_title>
schrodinger_fragment_collection_epik

>  <s_m_subgroupid>
schrodinger_fragment_collection_epik

>  <b_m_subgroup_collapsed>
0

$$$$
Schrodinger_fragment_404
 OpenBabel04062209313D
Schrodinger Suite 2020-2.
 31 32  0  0  1  0  0  0  0  0999 V2000
    2.4443   -2.2697   -0.2158 C   0  0  2  0  0  0  0  0  0  0  0  0
    3.7379   -2.9515    0.3089 C   0  0  0  0  0  0  0  0  0  0  0  0
    4.9691   -2.1967    0.0482 N   0  0  0  0  0  0  0  0  0  0  0  0
    4.9739   -0.8620   -0.1463 C   0  0  0  0  0  0  0  0  0  0  0  0
    3.6258   -0.1241   -0.1893 C   0  0  0  0  0  0  0  0  0  0  0  0
    1.2364   -0.1338   -0.0661 C   0  0  0  0  0  0  0  0  0  0  0  0
    0.0155   -0.8630    0.4918 C   0  0  0  0  0  0  0  0  0  0  0  0
   -0.0393   -2.2799   -0.0799 C   0  0  0  0  0  0  0  0  0  0  0  0
    6.0125   -0.2173   -0.3134 O   0  0  0  0  0  0  0  0  0  0  0  0
    1.1442   -4.4051   -0.2832 C   0  0  0  0  0  0  0  0  0  0  0  0
    6.2192   -2.9601    0.0895 C   0  0  0  0  0  0  0  0  0  0  0  0
    2.4613   -2.2467   -1.3088 H   0  0  0  0  0  0  0  0  0  0  0  0
    3.6678   -3.1154    1.3853 H   0  0  0  0  0  0  0  0  0  0  0  0
    3.8470   -3.9322   -0.1538 H   0  0  0  0  0  0  0  0  0  0  0  0
    3.7203    0.8006    0.3819 H   0  0  0  0  0  0  0  0  0  0  0  0
    3.4786    0.1686   -1.2307 H   0  0  0  0  0  0  0  0  0  0  0  0
    1.1478   -0.0251   -1.1496 H   0  0  0  0  0  0  0  0  0  0  0  0
    1.2791    0.8738    0.3520 H   0  0  0  0  0  0  0  0  0  0  0  0
    0.0541   -0.8905    1.5817 H   0  0  0  0  0  0  0  0  0  0  0  0
   -0.8940   -0.3217    0.2286 H   0  0  0  0  0  0  0  0  0  0  0  0
   -0.8926   -2.8106    0.3442 H   0  0  0  0  0  0  0  0  0  0  0  0
   -0.1955   -2.2420   -1.1594 H   0  0  0  0  0  0  0  0  0  0  0  0
    0.2074   -4.8773    0.0141 H   0  0  0  0  0  0  0  0  0  0  0  0
    1.9414   -5.0270    0.1213 H   0  0  0  0  0  0  0  0  0  0  0  0
    1.2020   -4.4370   -1.3717 H   0  0  0  0  0  0  0  0  0  0  0  0
    6.9288   -2.5089    0.7850 H   0  0  0  0  0  0  0  0  0  0  0  0
    6.6826   -2.9839   -0.8978 H   0  0  0  0  0  0  0  0  0  0  0  0
    6.0649   -3.9907    0.4109 H   0  0  0  0  0  0  0  0  0  0  0  0
    2.4430   -0.8840    0.2942 N   0  0  1  0  0  0  0  0  0  0  0  0
    1.2166   -3.0105    0.2190 N   0  3  1  0  0  0  0  0  0  0  0  0
    1.2638   -3.0792    1.2245 H   0  0  0  0  0  0  0  0  0  0  0  0
  1  2  1  0  0  0  0
  1 12  1  0  0  0  0
  1 29  1  1  0  0  0
  2  3  1  0  0  0  0
  2 13  1  0  0  0  0
  2 14  1  0  0  0  0
  3  4  1  0  0  0  0
  3 11  1  0  0  0  0
  4  5  1  0  0  0  0
  4  9  2  0  0  0  0
  5 15  1  0  0  0  0
  5 16  1  0  0  0  0
  6  7  1  0  0  0  0
  6 17  1  0  0  0  0
  6 18  1  0  0  0  0
  7  8  1  0  0  0  0
  7 19  1  0  0  0  0
  7 20  1  0  0  0  0
  8 21  1  0  0  0  0
  8 22  1  0  0  0  0
  8 30  1  0  0  0  0
 10 23  1  0  0  0  0
 10 24  1  0  0  0  0
 10 25  1  0  0  0  0
 10 30  1  0  0  0  0
 11 26  1  0  0  0  0
 11 27  1  0  0  0  0
 11 28  1  0  0  0  0
 29  6  1  6  0  0  0
 29  5  1  0  0  0  0
 30  1  1  6  0  0  0
 30 31  1  0  0  0  0
M  CHG  1  30   1
M  END
>  <s_m_entry_id>
6967

>  <s_m_entry_name>
Schrodinger_fragment_500

>  <s_m_Source_Path>
/aloy/home/agimeno/Documents/Starting_Project/Part1_SMILES-to-signatures/1.2/Databases/Compounds/Fragment_library/Schrodinger

>  <s_m_Source_File>
schrodinger_fragment_collection_epik.maegz

>  <i_m_Source_File_Index>
598

>  <i_m_number_of_atoms>
32

>  <r_m_molecular_weight>
185.27128

>  <s_m_molecular_formula>
C9H19N3O1

>  <r_epik_Ionization_Penalty>
0.0054

>  <r_epik_Ionization_Penalty_Charging>
0.0032

>  <r_epik_Ionization_Penalty_Neutral>
0.0022

>  <r_epik_State_Penalty>
0.1490

>  <i_epik_Tot_Q>
1

>  <r_epik_Metal_State_Penalty>
0.1490

>  <b_epik_Metal_Only>
0

>  <s_canvas_Unique_SMILES_Stereo>
CN(C1)C(=O)CN([C@@H]12)CCC[N@H+]2C

>  <s_m_subgroup_title>
schrodinger_fragment_collection_epik

>  <s_m_subgroupid>
schrodinger_fragment_collection_epik

>  <b_m_subgroup_collapsed>
0

$$$$
Schrodinger_fragment_400
 OpenBabel04062209313D
Schrodinger Suite 2020-2.
 31 32  0  0  1  0  0  0  0  0999 V2000
    2.4710   -2.2060   -0.4896 C   0  0  2  0  0  0  0  0  0  0  0  0
    3.6413   -2.9677    0.1905 C   0  0  0  0  0  0  0  0  0  0  0  0
    4.9097   -2.2222    0.1787 N   0  0  0  0  0  0  0  0  0  0  0  0
    4.9672   -0.8773    0.0511 C   0  0  0  0  0  0  0  0  0  0  0  0
    3.6498   -0.1018   -0.1366 C   0  0  0  0  0  0  0  0  0  0  0  0
    1.2128   -0.1254   -0.1816 C   0  0  0  0  0  0  0  0  0  0  0  0
   -0.0199   -0.8714    0.3698 C   0  0  0  0  0  0  0  0  0  0  0  0
    0.2272   -2.3760    0.5968 C   0  0  0  0  0  0  0  0  0  0  0  0
    6.0308   -0.2521    0.0645 O   0  0  0  0  0  0  0  0  0  0  0  0
    1.1928   -4.3909   -0.4588 C   0  0  0  0  0  0  0  0  0  0  0  0
    6.1262   -3.0167    0.3664 C   0  0  0  0  0  0  0  0  0  0  0  0
    2.7024   -2.0875   -1.5511 H   0  0  0  0  0  0  0  0  0  0  0  0
    3.3906   -3.1943    1.2278 H   0  0  0  0  0  0  0  0  0  0  0  0
    3.8056   -3.9203   -0.3136 H   0  0  0  0  0  0  0  0  0  0  0  0
    3.6770    0.7848    0.4984 H   0  0  0  0  0  0  0  0  0  0  0  0
    3.6293    0.2526   -1.1688 H   0  0  0  0  0  0  0  0  0  0  0  0
    1.1358   -0.0059   -1.2646 H   0  0  0  0  0  0  0  0  0  0  0  0
    1.2494    0.8805    0.2411 H   0  0  0  0  0  0  0  0  0  0  0  0
   -0.3344   -0.4239    1.3135 H   0  0  0  0  0  0  0  0  0  0  0  0
   -0.8554   -0.7280   -0.3166 H   0  0  0  0  0  0  0  0  0  0  0  0
    0.6728   -2.5394    1.5796 H   0  0  0  0  0  0  0  0  0  0  0  0
   -0.7230   -2.9113    0.5918 H   0  0  0  0  0  0  0  0  0  0  0  0
    0.1934   -4.8048   -0.5947 H   0  0  0  0  0  0  0  0  0  0  0  0
    1.5921   -4.7953    0.4717 H   0  0  0  0  0  0  0  0  0  0  0  0
    1.8044   -4.7512   -1.2864 H   0  0  0  0  0  0  0  0  0  0  0  0
    6.7401   -2.6071    1.1703 H   0  0  0  0  0  0  0  0  0  0  0  0
    6.7229   -3.0193   -0.5468 H   0  0  0  0  0  0  0  0  0  0  0  0
    5.9064   -4.0530    0.6256 H   0  0  0  0  0  0  0  0  0  0  0  0
    2.4212   -0.8777    0.1517 N   0  0  1  0  0  0  0  0  0  0  0  0
    1.1445   -2.9095   -0.4374 N   0  3  2  0  0  0  0  0  0  0  0  0
    0.6988   -2.6726   -1.3116 H   0  0  0  0  0  0  0  0  0  0  0  0
  1  2  1  0  0  0  0
  1 12  1  0  0  0  0
  1 29  1  1  0  0  0
  2  3  1  0  0  0  0
  2 13  1  0  0  0  0
  2 14  1  0  0  0  0
  3  4  1  0  0  0  0
  3 11  1  0  0  0  0
  4  5  1  0  0  0  0
  4  9  2  0  0  0  0
  5 15  1  0  0  0  0
  5 16  1  0  0  0  0
  6  7  1  0  0  0  0
  6 17  1  0  0  0  0
  6 18  1  0  0  0  0
  7  8  1  0  0  0  0
  7 19  1  0  0  0  0
  7 20  1  0  0  0  0
  8 21  1  0  0  0  0
  8 22  1  0  0  0  0
  8 30  1  0  0  0  0
 10 23  1  0  0  0  0
 10 24  1  0  0  0  0
 10 25  1  0  0  0  0
 10 30  1  0  0  0  0
 11 26  1  0  0  0  0
 11 27  1  0  0  0  0
 11 28  1  0  0  0  0
 29  6  1  6  0  0  0
 29  5  1  0  0  0  0
 30  1  1  1  0  0  0
 30 31  1  0  0  0  0
M  CHG  1  30   1
M  END
>  <s_m_entry_id>
6962

>  <s_m_entry_name>
Schrodinger_fragment_496

>  <s_m_Source_Path>
/aloy/home/agimeno/Documents/Starting_Project/Part1_SMILES-to-signatures/1.2/Databases/Compounds/Fragment_library/Schrodinger

>  <s_m_Source_File>
schrodinger_fragment_collection_epik.maegz

>  <i_m_Source_File_Index>
593

>  <i_m_number_of_atoms>
32

>  <r_m_molecular_weight>
185.27128

>  <s_m_molecular_formula>
C9H19N3O1

>  <r_epik_Ionization_Penalty>
0.0054

>  <r_epik_Ionization_Penalty_Charging>
0.0032

>  <r_epik_Ionization_Penalty_Neutral>
0.0022

>  <r_epik_State_Penalty>
0.1490

>  <i_epik_Tot_Q>
1

>  <r_epik_Metal_State_Penalty>
0.1490

>  <b_epik_Metal_Only>
0

>  <s_canvas_Unique_SMILES_Stereo>
CN(C1)C(=O)CN([C@@H]12)CCC[N@@H+]2C

>  <s_m_subgroup_title>
schrodinger_fragment_collection_epik

>  <s_m_subgroupid>
schrodinger_fragment_collection_epik

>  <b_m_subgroup_collapsed>
0

$$$$
Schrodinger_fragment_351
 OpenBabel04062209313D
Schrodinger Suite 2020-2.
 37 38  0  0  1  0  0  0  0  0999 V2000
    2.4005   -1.9177    1.0181 C   0  0  0  0  0  0  0  0  0  0  0  0
    3.6963   -2.3400    0.2942 C   0  0  0  0  0  0  0  0  0  0  0  0
    4.3686   -1.1867   -0.5006 C   0  0  2  0  0  0  0  0  0  0  0  0
    3.2814   -0.5701   -1.4167 C   0  0  0  0  0  0  0  0  0  0  0  0
    1.9984   -0.1659   -0.6631 C   0  0  0  0  0  0  0  0  0  0  0  0
    5.5110   -1.7325   -1.3941 C   0  0  0  0  0  0  0  0  0  0  0  0
    6.7467   -2.1974   -0.5977 C   0  0  0  0  0  0  0  0  0  0  0  0
    6.2389   -0.5812    1.1874 C   0  0  0  0  0  0  0  0  0  0  0  0
    4.9886   -0.1005    0.4211 C   0  0  0  0  0  0  0  0  0  0  0  0
    0.1436   -0.9720    0.7414 C   0  0  0  0  0  0  0  0  0  0  0  0
    8.5106   -1.5082    0.9760 C   0  0  0  0  0  0  0  0  0  0  0  0
    1.9536   -2.7924    1.4927 H   0  0  0  0  0  0  0  0  0  0  0  0
    2.6240   -1.2162    1.8227 H   0  0  0  0  0  0  0  0  0  0  0  0
    4.3807   -2.7730    1.0228 H   0  0  0  0  0  0  0  0  0  0  0  0
    3.4536   -3.1557   -0.3891 H   0  0  0  0  0  0  0  0  0  0  0  0
    3.6768    0.2996   -1.9435 H   0  0  0  0  0  0  0  0  0  0  0  0
    3.0128   -1.2844   -2.1970 H   0  0  0  0  0  0  0  0  0  0  0  0
    2.2028    0.6562    0.0238 H   0  0  0  0  0  0  0  0  0  0  0  0
    1.2648    0.2084   -1.3785 H   0  0  0  0  0  0  0  0  0  0  0  0
    5.1505   -2.5575   -2.0103 H   0  0  0  0  0  0  0  0  0  0  0  0
    5.8250   -0.9602   -2.0985 H   0  0  0  0  0  0  0  0  0  0  0  0
    6.5028   -3.0702    0.0092 H   0  0  0  0  0  0  0  0  0  0  0  0
    7.5234   -2.5166   -1.2941 H   0  0  0  0  0  0  0  0  0  0  0  0
    6.6541    0.2528    1.7551 H   0  0  0  0  0  0  0  0  0  0  0  0
    5.9685   -1.3427    1.9198 H   0  0  0  0  0  0  0  0  0  0  0  0
    5.2706    0.7654   -0.1804 H   0  0  0  0  0  0  0  0  0  0  0  0
    4.2601    0.2761    1.1383 H   0  0  0  0  0  0  0  0  0  0  0  0
   -0.5810   -0.5982    0.0175 H   0  0  0  0  0  0  0  0  0  0  0  0
    0.2846   -0.2062    1.5050 H   0  0  0  0  0  0  0  0  0  0  0  0
   -0.2938   -1.8492    1.2190 H   0  0  0  0  0  0  0  0  0  0  0  0
    8.9160   -0.6721    1.5464 H   0  0  0  0  0  0  0  0  0  0  0  0
    9.2788   -1.8262    0.2706 H   0  0  0  0  0  0  0  0  0  0  0  0
    8.3249   -2.3309    1.6673 H   0  0  0  0  0  0  0  0  0  0  0  0
    1.4229   -1.3130    0.0804 N   0  3  2  0  0  0  0  0  0  0  0  0
    1.1978   -2.0204   -0.6036 H   0  0  0  0  0  0  0  0  0  0  0  0
    7.2732   -1.1133    0.2667 N   0  3  1  0  0  0  0  0  0  0  0  0
    7.5380   -0.3553   -0.3450 H   0  0  0  0  0  0  0  0  0  0  0  0
  1  2  1  0  0  0  0
  1 12  1  0  0  0  0
  1 13  1  0  0  0  0
  1 34  1  0  0  0  0
  2 14  1  0  0  0  0
  2 15  1  0  0  0  0
  3  2  1  1  0  0  0
  3  4  1  0  0  0  0
  3  6  1  0  0  0  0
  3  9  1  0  0  0  0
  4  5  1  0  0  0  0
  4 16  1  0  0  0  0
  4 17  1  0  0  0  0
  5 18  1  0  0  0  0
  5 19  1  0  0  0  0
  5 34  1  0  0  0  0
  6  7  1  0  0  0  0
  6 20  1  0  0  0  0
  6 21  1  0  0  0  0
  7 22  1  0  0  0  0
  7 23  1  0  0  0  0
  7 36  1  0  0  0  0
  8  9  1  0  0  0  0
  8 24  1  0  0  0  0
  8 25  1  0  0  0  0
  8 36  1  0  0  0  0
  9 26  1  0  0  0  0
  9 27  1  0  0  0  0
 10 28  1  0  0  0  0
 10 29  1  0  0  0  0
 10 30  1  0  0  0  0
 10 34  1  0  0  0  0
 11 31  1  0  0  0  0
 11 32  1  0  0  0  0
 11 33  1  0  0  0  0
 11 36  1  0  0  0  0
 34 35  1  6  0  0  0
 36 37  1  6  0  0  0
M  CHG  2  34   1  36   1
M  END
>  <s_m_entry_id>
6872

>  <s_m_entry_name>
Schrodinger_fragment_438

>  <s_m_Source_Path>
/aloy/home/agimeno/Documents/Starting_Project/Part1_SMILES-to-signatures/1.2/Databases/Compounds/Fragment_library/Schrodinger

>  <s_m_Source_File>
schrodinger_fragment_collection_epik.maegz

>  <i_m_Source_File_Index>
503

>  <i_m_number_of_atoms>
37

>  <r_m_molecular_weight>
184.32733

>  <s_m_molecular_formula>
C11H24N2

>  <r_epik_Ionization_Penalty>
0.0166

>  <r_epik_Ionization_Penalty_Charging>
0.0166

>  <r_epik_Ionization_Penalty_Neutral>
0.0000

>  <r_epik_State_Penalty>
0.0083

>  <i_epik_Tot_Q>
2

>  <r_epik_Metal_State_Penalty>
0.0083

>  <b_epik_Metal_Only>
0

>  <s_canvas_Unique_SMILES_Stereo>
C1C[N@@H+](C)CCC12CC[N@H+](C)CC2

>  <s_m_subgroup_title>
schrodinger_fragment_collection_epik

>  <s_m_subgroupid>
schrodinger_fragment_collection_epik

>  <b_m_subgroup_collapsed>
0

$$$$
Schrodinger_fragment_397
 OpenBabel04062209313D
Schrodinger Suite 2020-2.
 28 29  0  0  1  0  0  0  0  0999 V2000
    2.4614   -2.3286    0.5709 C   0  0  1  0  0  0  0  0  0  0  0  0
    3.4143   -2.7356   -0.5933 C   0  0  0  0  0  0  0  0  0  0  0  0
    4.6375   -1.9349   -0.6416 N   0  0  0  0  0  0  0  0  0  0  0  0
    4.7943   -0.7472   -0.0463 C   0  0  0  0  0  0  0  0  0  0  0  0
    3.6606   -0.2279    0.8601 C   0  0  0  0  0  0  0  0  0  0  0  0
    1.6037   -0.2896   -0.4667 C   0  0  0  0  0  0  0  0  0  0  0  0
    0.1949   -0.8986   -0.4983 C   0  0  0  0  0  0  0  0  0  0  0  0
    0.2527   -2.4313   -0.5687 C   0  0  0  0  0  0  0  0  0  0  0  0
    5.8229   -0.0899   -0.1891 O   0  0  0  0  0  0  0  0  0  0  0  0
    1.1439   -4.4491    0.5482 C   0  0  0  0  0  0  0  0  0  0  0  0
    2.9201   -2.6658    1.5035 H   0  0  0  0  0  0  0  0  0  0  0  0
    3.7017   -3.7827   -0.4930 H   0  0  0  0  0  0  0  0  0  0  0  0
    2.9250   -2.6491   -1.5629 H   0  0  0  0  0  0  0  0  0  0  0  0
    5.3961   -2.2819   -1.2128 H   0  0  0  0  0  0  0  0  0  0  0  0
    3.9838   -0.4030    1.8873 H   0  0  0  0  0  0  0  0  0  0  0  0
    3.5814    0.8560    0.7610 H   0  0  0  0  0  0  0  0  0  0  0  0
    2.1217   -0.4562   -1.4128 H   0  0  0  0  0  0  0  0  0  0  0  0
    1.5189    0.7922   -0.3493 H   0  0  0  0  0  0  0  0  0  0  0  0
   -0.3593   -0.5891    0.3892 H   0  0  0  0  0  0  0  0  0  0  0  0
   -0.3602   -0.5097   -1.3527 H   0  0  0  0  0  0  0  0  0  0  0  0
   -0.7541   -2.8403   -0.4753 H   0  0  0  0  0  0  0  0  0  0  0  0
    0.6247   -2.7493   -1.5431 H   0  0  0  0  0  0  0  0  0  0  0  0
    0.1380   -4.8475    0.6829 H   0  0  0  0  0  0  0  0  0  0  0  0
    1.7513   -4.8099    1.3788 H   0  0  0  0  0  0  0  0  0  0  0  0
    1.5444   -4.8679   -0.3752 H   0  0  0  0  0  0  0  0  0  0  0  0
    2.3279   -0.8620    0.6752 N   0  0  1  0  0  0  0  0  0  0  0  0
    1.1158   -2.9684    0.5128 N   0  3  1  0  0  0  0  0  0  0  0  0
    0.6682   -2.6990    1.3762 H   0  0  0  0  0  0  0  0  0  0  0  0
  1  2  1  0  0  0  0
  1 11  1  0  0  0  0
  1 26  1  1  0  0  0
  2  3  1  0  0  0  0
  2 12  1  0  0  0  0
  2 13  1  0  0  0  0
  3  4  1  0  0  0  0
  3 14  1  0  0  0  0
  4  5  1  0  0  0  0
  4  9  2  0  0  0  0
  5 15  1  0  0  0  0
  5 16  1  0  0  0  0
  6  7  1  0  0  0  0
  6 17  1  0  0  0  0
  6 18  1  0  0  0  0
  7  8  1  0  0  0  0
  7 19  1  0  0  0  0
  7 20  1  0  0  0  0
  8 21  1  0  0  0  0
  8 22  1  0  0  0  0
  8 27  1  0  0  0  0
 10 23  1  0  0  0  0
 10 24  1  0  0  0  0
 10 25  1  0  0  0  0
 10 27  1  0  0  0  0
 26  6  1  6  0  0  0
 26  5  1  0  0  0  0
 27  1  1  6  0  0  0
 27 28  1  0  0  0  0
M  CHG  1  27   1
M  END
>  <s_m_entry_id>
6956

>  <s_m_entry_name>
Schrodinger_fragment_491

>  <s_m_Source_Path>
/aloy/home/agimeno/Documents/Starting_Project/Part1_SMILES-to-signatures/1.2/Databases/Compounds/Fragment_library/Schrodinger

>  <s_m_Source_File>
schrodinger_fragment_collection_epik.maegz

>  <i_m_Source_File_Index>
587

>  <i_m_number_of_atoms>
29

>  <r_m_molecular_weight>
171.24419

>  <s_m_molecular_formula>
C8H17N3O1

>  <r_epik_Ionization_Penalty>
0.0059

>  <r_epik_Ionization_Penalty_Charging>
0.0043

>  <r_epik_Ionization_Penalty_Neutral>
0.0016

>  <r_epik_State_Penalty>
0.1395

>  <i_epik_Tot_Q>
1

>  <r_epik_Metal_State_Penalty>
0.1970

>  <b_epik_Metal_Only>
0

>  <s_canvas_Unique_SMILES_Stereo>
C[N@@H+]1CCCN([C@@H]12)CC(=O)NC2

>  <s_m_subgroup_title>
schrodinger_fragment_collection_epik

>  <s_m_subgroupid>
schrodinger_fragment_collection_epik

>  <b_m_subgroup_collapsed>
0

$$$$
Schrodinger_fragment_255
 OpenBabel04062209313D
Schrodinger Suite 2020-2.
 26 27  0  0  1  0  0  0  0  0999 V2000
   -0.0817   -0.3068    0.4522 C   0  0  0  0  0  0  0  0  0  0  0  0
   -0.3187   -1.5509   -0.4102 C   0  0  0  0  0  0  0  0  0  0  0  0
    2.0328   -1.4040    0.1195 C   0  0  2  0  0  0  0  0  0  0  0  0
    1.2368   -0.5956    1.1630 C   0  0  0  0  0  0  0  0  0  0  0  0
    3.0316   -2.3795    0.7434 C   0  0  0  0  0  0  0  0  0  0  0  0
    4.2358   -2.2452    0.1992 N   0  0  0  0  0  0  0  0  0  0  0  0
    4.2985   -1.2342   -0.8414 C   0  0  0  0  0  0  0  0  0  0  0  0
    2.9404   -0.5156   -0.7718 C   0  0  0  0  0  0  0  0  0  0  0  0
    2.7336   -3.2109    1.6016 O   0  0  0  0  0  0  0  0  0  0  0  0
    1.2753   -2.6372   -1.9895 C   0  0  0  0  0  0  0  0  0  0  0  0
    0.0310    0.5683   -0.1898 H   0  0  0  0  0  0  0  0  0  0  0  0
   -0.9032   -0.1088    1.1415 H   0  0  0  0  0  0  0  0  0  0  0  0
   -0.9821   -2.2520    0.0974 H   0  0  0  0  0  0  0  0  0  0  0  0
   -0.7924   -1.2831   -1.3560 H   0  0  0  0  0  0  0  0  0  0  0  0
    1.7407    0.3139    1.4909 H   0  0  0  0  0  0  0  0  0  0  0  0
    1.0436   -1.1921    2.0564 H   0  0  0  0  0  0  0  0  0  0  0  0
    5.0354   -2.8079    0.4601 H   0  0  0  0  0  0  0  0  0  0  0  0
    5.1316   -0.5485   -0.6788 H   0  0  0  0  0  0  0  0  0  0  0  0
    4.4422   -1.7154   -1.8102 H   0  0  0  0  0  0  0  0  0  0  0  0
    2.5364   -0.2937   -1.7577 H   0  0  0  0  0  0  0  0  0  0  0  0
    3.0949    0.4548   -0.2993 H   0  0  0  0  0  0  0  0  0  0  0  0
    2.2524   -3.1129   -2.0732 H   0  0  0  0  0  0  0  0  0  0  0  0
    1.2306   -1.8097   -2.6970 H   0  0  0  0  0  0  0  0  0  0  0  0
    0.5313   -3.3697   -2.3035 H   0  0  0  0  0  0  0  0  0  0  0  0
    0.9994   -2.2017   -0.5981 N   0  3  2  0  0  0  0  0  0  0  0  0
    0.9598   -3.0515   -0.0511 H   0  0  0  0  0  0  0  0  0  0  0  0
  1  2  1  0  0  0  0
  1  4  1  0  0  0  0
  1 11  1  0  0  0  0
  1 12  1  0  0  0  0
  2 13  1  0  0  0  0
  2 14  1  0  0  0  0
  2 25  1  0  0  0  0
  3  4  1  0  0  0  0
  3  5  1  0  0  0  0
  3  8  1  0  0  0  0
  3 25  1  6  0  0  0
  4 15  1  0  0  0  0
  4 16  1  0  0  0  0
  5  6  1  0  0  0  0
  5  9  2  0  0  0  0
  6  7  1  0  0  0  0
  6 17  1  0  0  0  0
  7  8  1  0  0  0  0
  7 18  1  0  0  0  0
  7 19  1  0  0  0  0
  8 20  1  0  0  0  0
  8 21  1  0  0  0  0
 10 22  1  0  0  0  0
 10 23  1  0  0  0  0
 10 24  1  0  0  0  0
 10 25  1  0  0  0  0
 25 26  1  1  0  0  0
M  CHG  1  25   1
M  END
>  <s_m_entry_id>
6699

>  <s_m_entry_name>
Schrodinger_fragment_316

>  <s_m_Source_Path>
/aloy/home/agimeno/Documents/Starting_Project/Part1_SMILES-to-signatures/1.2/Databases/Compounds/Fragment_library/Schrodinger

>  <s_m_Source_File>
schrodinger_fragment_collection_epik.maegz

>  <i_m_Source_File_Index>
330

>  <i_m_number_of_atoms>
26

>  <r_m_molecular_weight>
155.22155

>  <s_m_molecular_formula>
C8H15N2O1

>  <r_epik_Ionization_Penalty>
0.0019

>  <r_epik_Ionization_Penalty_Charging>
0.0005

>  <r_epik_Ionization_Penalty_Neutral>
0.0014

>  <r_epik_State_Penalty>
0.0000

>  <i_epik_Tot_Q>
1

>  <r_epik_Metal_State_Penalty>
0.7308

>  <b_epik_Metal_Only>
0

>  <s_canvas_Unique_SMILES_Stereo>
C[N@@H+]1CCC[C@@]12C(=O)NCC2

>  <s_m_subgroup_title>
schrodinger_fragment_collection_epik

>  <s_m_subgroupid>
schrodinger_fragment_collection_epik

>  <b_m_subgroup_collapsed>
0

$$$$
Schrodinger_fragment_249
 OpenBabel04062209313D
Schrodinger Suite 2020-2.
 26 27  0  0  1  0  0  0  0  0999 V2000
   -0.1333   -0.7308   -0.9408 C   0  0  0  0  0  0  0  0  0  0  0  0
   -0.3264   -1.6027    0.3095 C   0  0  0  0  0  0  0  0  0  0  0  0
    2.0249   -1.1084    0.1213 C   0  0  1  0  0  0  0  0  0  0  0  0
    1.2700   -0.1339   -0.8014 C   0  0  0  0  0  0  0  0  0  0  0  0
    2.7239   -2.2305   -0.6694 C   0  0  0  0  0  0  0  0  0  0  0  0
    4.0022   -2.3344   -0.3256 N   0  0  0  0  0  0  0  0  0  0  0  0
    4.4163   -1.3812    0.6857 C   0  0  0  0  0  0  0  0  0  0  0  0
    3.2041   -0.4539    0.8770 C   0  0  0  0  0  0  0  0  0  0  0  0
    2.1643   -2.9492   -1.4988 O   0  0  0  0  0  0  0  0  0  0  0  0
    1.2279   -2.8674    1.7963 C   0  0  0  0  0  0  0  0  0  0  0  0
   -0.1898   -1.3534   -1.8351 H   0  0  0  0  0  0  0  0  0  0  0  0
   -0.9003    0.0391   -1.0315 H   0  0  0  0  0  0  0  0  0  0  0  0
   -1.1096   -1.2083    0.9580 H   0  0  0  0  0  0  0  0  0  0  0  0
   -0.6244   -2.6104    0.0154 H   0  0  0  0  0  0  0  0  0  0  0  0
    1.7563    0.0045   -1.7684 H   0  0  0  0  0  0  0  0  0  0  0  0
    1.2015    0.8486   -0.3327 H   0  0  0  0  0  0  0  0  0  0  0  0
    4.6374   -3.0123   -0.7268 H   0  0  0  0  0  0  0  0  0  0  0  0
    4.6600   -1.9096    1.6088 H   0  0  0  0  0  0  0  0  0  0  0  0
    5.3030   -0.8306    0.3677 H   0  0  0  0  0  0  0  0  0  0  0  0
    3.4336    0.5239    0.4513 H   0  0  0  0  0  0  0  0  0  0  0  0
    2.9959   -0.2912    1.9349 H   0  0  0  0  0  0  0  0  0  0  0  0
    2.1730   -2.8081    2.3365 H   0  0  0  0  0  0  0  0  0  0  0  0
    1.2556   -3.7460    1.1510 H   0  0  0  0  0  0  0  0  0  0  0  0
    0.4412   -3.0299    2.5333 H   0  0  0  0  0  0  0  0  0  0  0  0
    0.9646   -1.6186    1.0370 N   0  3  2  0  0  0  0  0  0  0  0  0
    0.8668   -0.8970    1.7343 H   0  0  0  0  0  0  0  0  0  0  0  0
  1  2  1  0  0  0  0
  1  4  1  0  0  0  0
  1 11  1  0  0  0  0
  1 12  1  0  0  0  0
  2 13  1  0  0  0  0
  2 14  1  0  0  0  0
  2 25  1  0  0  0  0
  3  4  1  0  0  0  0
  3  5  1  0  0  0  0
  3  8  1  0  0  0  0
  3 25  1  1  0  0  0
  4 15  1  0  0  0  0
  4 16  1  0  0  0  0
  5  6  1  0  0  0  0
  5  9  2  0  0  0  0
  6  7  1  0  0  0  0
  6 17  1  0  0  0  0
  7  8  1  0  0  0  0
  7 18  1  0  0  0  0
  7 19  1  0  0  0  0
  8 20  1  0  0  0  0
  8 21  1  0  0  0  0
 10 22  1  0  0  0  0
 10 23  1  0  0  0  0
 10 24  1  0  0  0  0
 10 25  1  0  0  0  0
 25 26  1  1  0  0  0
M  CHG  1  25   1
M  END
>  <s_m_entry_id>
6690

>  <s_m_entry_name>
Schrodinger_fragment_310

>  <s_m_Source_Path>
/aloy/home/agimeno/Documents/Starting_Project/Part1_SMILES-to-signatures/1.2/Databases/Compounds/Fragment_library/Schrodinger

>  <s_m_Source_File>
schrodinger_fragment_collection_epik.maegz

>  <i_m_Source_File_Index>
321

>  <i_m_number_of_atoms>
26

>  <r_m_molecular_weight>
155.22155

>  <s_m_molecular_formula>
C8H15N2O1

>  <r_epik_Ionization_Penalty>
0.0019

>  <r_epik_Ionization_Penalty_Charging>
0.0005

>  <r_epik_Ionization_Penalty_Neutral>
0.0014

>  <r_epik_State_Penalty>
0.0000

>  <i_epik_Tot_Q>
1

>  <r_epik_Metal_State_Penalty>
0.7308

>  <b_epik_Metal_Only>
0

>  <s_canvas_Unique_SMILES_Stereo>
C[N@@H+]1CCC[C@]12C(=O)NCC2

>  <s_m_subgroup_title>
schrodinger_fragment_collection_epik

>  <s_m_subgroupid>
schrodinger_fragment_collection_epik

>  <b_m_subgroup_collapsed>
0

$$$$
Schrodinger_fragment_248
 OpenBabel04062209313D
Schrodinger Suite 2020-2.
 26 27  0  0  1  0  0  0  0  0999 V2000
   -0.0680   -0.2489   -0.4819 C   0  0  0  0  0  0  0  0  0  0  0  0
   -0.3321   -1.5258    0.3228 C   0  0  0  0  0  0  0  0  0  0  0  0
    2.0355   -1.3587   -0.1223 C   0  0  1  0  0  0  0  0  0  0  0  0
    1.2737   -0.5099   -1.1592 C   0  0  0  0  0  0  0  0  0  0  0  0
    3.0556   -2.3092   -0.7504 C   0  0  0  0  0  0  0  0  0  0  0  0
    4.2409   -2.1966   -0.1616 N   0  0  0  0  0  0  0  0  0  0  0  0
    4.2679   -1.2271    0.9192 C   0  0  0  0  0  0  0  0  0  0  0  0
    2.9121   -0.5061    0.8327 C   0  0  0  0  0  0  0  0  0  0  0  0
    2.7872   -3.1064   -1.6499 O   0  0  0  0  0  0  0  0  0  0  0  0
    1.2097   -2.6734    1.9105 C   0  0  0  0  0  0  0  0  0  0  0  0
   -0.8664   -0.0239   -1.1899 H   0  0  0  0  0  0  0  0  0  0  0  0
    0.0223    0.6003    0.1971 H   0  0  0  0  0  0  0  0  0  0  0  0
   -0.8372   -1.2951    1.2620 H   0  0  0  0  0  0  0  0  0  0  0  0
   -0.9775   -2.2063   -0.2337 H   0  0  0  0  0  0  0  0  0  0  0  0
    1.1109   -1.0710   -2.0812 H   0  0  0  0  0  0  0  0  0  0  0  0
    1.7873    0.4115   -1.4344 H   0  0  0  0  0  0  0  0  0  0  0  0
    5.0494   -2.7488   -0.4176 H   0  0  0  0  0  0  0  0  0  0  0  0
    4.3798   -1.7459    1.8727 H   0  0  0  0  0  0  0  0  0  0  0  0
    5.1051   -0.5357    0.8113 H   0  0  0  0  0  0  0  0  0  0  0  0
    3.0811    0.4821    0.4039 H   0  0  0  0  0  0  0  0  0  0  0  0
    2.4752   -0.3228    1.8126 H   0  0  0  0  0  0  0  0  0  0  0  0
    2.1841   -3.1522    2.0079 H   0  0  0  0  0  0  0  0  0  0  0  0
    0.4566   -3.4175    2.1707 H   0  0  0  0  0  0  0  0  0  0  0  0
    1.1407   -1.8742    2.6479 H   0  0  0  0  0  0  0  0  0  0  0  0
    0.9797   -2.1837    0.5287 N   0  3  1  0  0  0  0  0  0  0  0  0
    0.9593   -3.0114   -0.0520 H   0  0  0  0  0  0  0  0  0  0  0  0
  1  2  1  0  0  0  0
  1  4  1  0  0  0  0
  1 11  1  0  0  0  0
  1 12  1  0  0  0  0
  2 13  1  0  0  0  0
  2 14  1  0  0  0  0
  2 25  1  0  0  0  0
  3  4  1  0  0  0  0
  3  5  1  0  0  0  0
  3  8  1  0  0  0  0
  3 25  1  1  0  0  0
  4 15  1  0  0  0  0
  4 16  1  0  0  0  0
  5  6  1  0  0  0  0
  5  9  2  0  0  0  0
  6  7  1  0  0  0  0
  6 17  1  0  0  0  0
  7  8  1  0  0  0  0
  7 18  1  0  0  0  0
  7 19  1  0  0  0  0
  8 20  1  0  0  0  0
  8 21  1  0  0  0  0
 10 22  1  0  0  0  0
 10 23  1  0  0  0  0
 10 24  1  0  0  0  0
 10 25  1  0  0  0  0
 25 26  1  6  0  0  0
M  CHG  1  25   1
M  END
>  <s_m_entry_id>
6688

>  <s_m_entry_name>
Schrodinger_fragment_309

>  <s_m_Source_Path>
/aloy/home/agimeno/Documents/Starting_Project/Part1_SMILES-to-signatures/1.2/Databases/Compounds/Fragment_library/Schrodinger

>  <s_m_Source_File>
schrodinger_fragment_collection_epik.maegz

>  <i_m_Source_File_Index>
319

>  <i_m_number_of_atoms>
26

>  <r_m_molecular_weight>
155.22155

>  <s_m_molecular_formula>
C8H15N2O1

>  <r_epik_Ionization_Penalty>
0.0019

>  <r_epik_Ionization_Penalty_Charging>
0.0005

>  <r_epik_Ionization_Penalty_Neutral>
0.0014

>  <r_epik_State_Penalty>
0.0000

>  <i_epik_Tot_Q>
1

>  <r_epik_Metal_State_Penalty>
0.7308

>  <b_epik_Metal_Only>
0

>  <s_canvas_Unique_SMILES_Stereo>
C[N@H+]1CCC[C@]12C(=O)NCC2

>  <s_m_subgroup_title>
schrodinger_fragment_collection_epik

>  <s_m_subgroupid>
schrodinger_fragment_collection_epik

>  <b_m_subgroup_collapsed>
0

$$$$
Schrodinger_fragment_226
 OpenBabel04062209313D
Schrodinger Suite 2020-2.
 11 11  0  0  1  0  0  0  0  0999 V2000
    1.2201    3.4637    0.2320 C   0  0  0  0  0  0  0  0  0  0  0  0
    1.3272    2.1138    0.2028 N   0  5  0  0  0  0  0  0  0  0  0  0
    2.5199    1.4680    0.1927 C   0  0  0  0  0  0  0  0  0  0  0  0
    3.6437    2.1899    0.2123 N   0  0  0  0  0  0  0  0  0  0  0  0
    3.6488    3.5746    0.2426 C   0  0  0  0  0  0  0  0  0  0  0  0
    2.4410    4.2334    0.2530 C   0  0  0  0  0  0  0  0  0  0  0  0
    4.8514    3.9053    0.2539 O   0  5  0  0  0  0  0  0  0  0  0  0
    0.1421    4.0513    0.2411 O   0  0  0  0  0  0  0  0  0  0  0  0
    2.6420    0.2491    0.1666 O   0  0  0  0  0  0  0  0  0  0  0  0
    4.5450    1.7229    0.2051 H   0  0  0  0  0  0  0  0  0  0  0  0
    2.4047    5.3157    0.2766 H   0  0  0  0  0  0  0  0  0  0  0  0
  1  2  1  0  0  0  0
  1  6  1  0  0  0  0
  1  8  2  0  0  0  0
  2  3  1  0  0  0  0
  3  4  1  0  0  0  0
  3  9  2  0  0  0  0
  4  5  1  0  0  0  0
  4 10  1  0  0  0  0
  5  6  2  0  0  0  0
  5  7  1  0  0  0  0
  6 11  1  0  0  0  0
M  CHG  2   2  -1   7  -1
M  END
>  <s_m_entry_id>
6661

>  <s_m_entry_name>
Schrodinger_fragment_287

>  <s_m_Source_Path>
/aloy/home/agimeno/Documents/Starting_Project/Part1_SMILES-to-signatures/1.2/Databases/Compounds/Fragment_library/Schrodinger

>  <s_m_Source_File>
schrodinger_fragment_collection_epik.maegz

>  <i_m_Source_File_Index>
292

>  <i_m_number_of_atoms>
13

>  <r_m_molecular_weight>
128.08808

>  <s_m_molecular_formula>
C4H4N2O3

>  <r_epik_Ionization_Penalty>
7.2291

>  <r_epik_Ionization_Penalty_Charging>
0.0000

>  <r_epik_Ionization_Penalty_Neutral>
7.2291

>  <r_epik_State_Penalty>
0.1520

>  <i_epik_Tot_Q>
-2

>  <r_epik_Metal_State_Penalty>
0.0002

>  <b_epik_Metal_Only>
0

>  <s_canvas_Unique_SMILES_Stereo>
O=c1cc([O-])[nH]c([n-]1)=O

>  <s_m_subgroup_title>
schrodinger_fragment_collection_epik

>  <s_m_subgroupid>
schrodinger_fragment_collection_epik

>  <b_m_subgroup_collapsed>
0

$$$$
Schrodinger_fragment_373
 OpenBabel04062209313D
Schrodinger Suite 2020-2.
 26 27  0  0  1  0  0  0  0  0999 V2000
    6.3474   -1.9763    0.1016 C   0  0  0  0  0  0  0  0  0  0  0  0
    6.2132   -3.3765    0.1198 C   0  0  0  0  0  0  0  0  0  0  0  0
    4.9388   -3.9727    0.0309 C   0  0  0  0  0  0  0  0  0  0  0  0
    3.7641   -3.1844   -0.0822 C   0  0  0  0  0  0  0  0  0  0  0  0
    3.9289   -1.7708   -0.1043 C   0  0  0  0  0  0  0  0  0  0  0  0
    5.1994   -1.1710   -0.0089 C   0  0  0  0  0  0  0  0  0  0  0  0
    2.5303   -3.7748   -0.1552 N   0  0  0  0  0  0  0  0  0  0  0  0
    1.3117   -3.0539   -0.5515 C   0  0  0  0  0  0  0  0  0  0  0  0
    1.2557   -1.8027    0.2066 N   0  0  0  0  0  0  0  0  0  0  0  0
    2.5002   -0.7042   -0.2244 S   0  0  0  0  0  0  0  0  0  0  0  0
    2.2938   -0.3425   -1.6375 O   0  0  0  0  0  0  0  0  0  0  0  0
    2.5543    0.3506    0.8031 O   0  0  0  0  0  0  0  0  0  0  0  0
    0.9475   -1.9689    1.6382 C   0  0  0  0  0  0  0  0  0  0  0  0
    2.3352   -5.2097    0.0644 C   0  0  0  0  0  0  0  0  0  0  0  0
    7.3262   -1.5217    0.1728 H   0  0  0  0  0  0  0  0  0  0  0  0
    7.0926   -4.0002    0.2038 H   0  0  0  0  0  0  0  0  0  0  0  0
    4.8917   -5.0514    0.0474 H   0  0  0  0  0  0  0  0  0  0  0  0
    5.2825   -0.0941   -0.0214 H   0  0  0  0  0  0  0  0  0  0  0  0
    1.3437   -2.8386   -1.6220 H   0  0  0  0  0  0  0  0  0  0  0  0
    0.3966   -3.6246   -0.3819 H   0  0  0  0  0  0  0  0  0  0  0  0
    0.7000   -1.0070    2.0880 H   0  0  0  0  0  0  0  0  0  0  0  0
    1.8025   -2.3845    2.1732 H   0  0  0  0  0  0  0  0  0  0  0  0
    0.0943   -2.6330    1.7789 H   0  0  0  0  0  0  0  0  0  0  0  0
    1.2842   -5.4889    0.1460 H   0  0  0  0  0  0  0  0  0  0  0  0
    2.8173   -5.5282    0.9897 H   0  0  0  0  0  0  0  0  0  0  0  0
    2.7625   -5.7848   -0.7582 H   0  0  0  0  0  0  0  0  0  0  0  0
  1  2  2  0  0  0  0
  1  6  1  0  0  0  0
  1 15  1  0  0  0  0
  2  3  1  0  0  0  0
  2 16  1  0  0  0  0
  3  4  2  0  0  0  0
  3 17  1  0  0  0  0
  4  5  1  0  0  0  0
  4  7  1  0  0  0  0
  5  6  2  0  0  0  0
  5 10  1  0  0  0  0
  6 18  1  0  0  0  0
  7  8  1  0  0  0  0
  7 14  1  0  0  0  0
  8  9  1  0  0  0  0
  8 19  1  0  0  0  0
  8 20  1  0  0  0  0
  9 10  1  0  0  0  0
  9 13  1  0  0  0  0
 10 11  2  0  0  0  0
 10 12  2  0  0  0  0
 13 21  1  0  0  0  0
 13 22  1  0  0  0  0
 13 23  1  0  0  0  0
 14 24  1  0  0  0  0
 14 25  1  0  0  0  0
 14 26  1  0  0  0  0
M  END
>  <s_m_entry_id>
6905

>  <s_m_entry_name>
Schrodinger_fragment_464

>  <s_m_Source_Path>
/aloy/home/agimeno/Documents/Starting_Project/Part1_SMILES-to-signatures/1.2/Databases/Compounds/Fragment_library/Schrodinger

>  <s_m_Source_File>
schrodinger_fragment_collection_epik.maegz

>  <i_m_Source_File_Index>
536

>  <i_m_number_of_atoms>
26

>  <r_m_molecular_weight>
212.27219

>  <s_m_molecular_formula>
C9H12N2O2S1

>  <r_epik_Ionization_Penalty>
0.0000

>  <r_epik_Ionization_Penalty_Charging>
0.0000

>  <r_epik_Ionization_Penalty_Neutral>
0.0000

>  <r_epik_State_Penalty>
0.0000

>  <i_epik_Tot_Q>
0

>  <r_epik_Metal_State_Penalty>
0.0000

>  <b_epik_Metal_Only>
0

>  <s_canvas_Unique_SMILES_Stereo>
CN1CN(C)S(=O)(=O)c(c12)cccc2

>  <s_m_subgroup_title>
schrodinger_fragment_collection_epik

>  <s_m_subgroupid>
schrodinger_fragment_collection_epik

>  <b_m_subgroup_collapsed>
0

$$$$
Schrodinger_fragment_179_a
 OpenBabel04062209313D
Schrodinger Suite 2020-2.
 10 10  0  0  1  0  0  0  0  0999 V2000
    0.0075    0.4216    0.0169 C   0  0  0  0  0  0  0  0  0  0  0  0
    0.0964    1.9246    0.0211 C   0  0  0  0  0  0  0  0  0  0  0  0
    1.4182    0.0239    0.0218 N   0  0  0  0  0  0  0  0  0  0  0  0
    2.1275    1.0679    0.0274 C   0  0  0  0  0  0  0  0  0  0  0  0
    1.3687    2.3080    0.0274 C   0  0  0  0  0  0  0  0  0  0  0  0
    3.3386    1.2933    0.0330 O   0  5  0  0  0  0  0  0  0  0  0  0
   -0.5207    0.0624    0.9029 H   0  0  0  0  0  0  0  0  0  0  0  0
   -0.5133    0.0669   -0.8751 H   0  0  0  0  0  0  0  0  0  0  0  0
   -0.7695    2.5726    0.0192 H   0  0  0  0  0  0  0  0  0  0  0  0
    1.7979    3.3019    0.0317 H   0  0  0  0  0  0  0  0  0  0  0  0
  1  2  1  0  0  0  0
  1  3  1  0  0  0  0
  1  7  1  0  0  0  0
  1  8  1  0  0  0  0
  2  5  2  0  0  0  0
  2  9  1  0  0  0  0
  3  4  2  0  0  0  0
  4  5  1  0  0  0  0
  4  6  1  0  0  0  0
  5 10  1  0  0  0  0
M  CHG  1   6  -1
M  END
>  <s_m_entry_id>
6595

>  <s_m_entry_name>
Schrodinger_fragment_234

>  <s_m_Source_Path>
/aloy/home/agimeno/Documents/Starting_Project/Part1_SMILES-to-signatures/1.2/Databases/Compounds/Fragment_library/Schrodinger

>  <s_m_Source_File>
schrodinger_fragment_collection_epik.maegz

>  <i_m_Source_File_Index>
226

>  <i_m_number_of_atoms>
11

>  <r_m_molecular_weight>
83.09055

>  <s_m_molecular_formula>
C4H5N1O1

>  <r_epik_Ionization_Penalty>
6.0669

>  <r_epik_Ionization_Penalty_Charging>
6.0669

>  <r_epik_Ionization_Penalty_Neutral>
0.0000

>  <r_epik_State_Penalty>
6.0669

>  <i_epik_Tot_Q>
-1

>  <r_epik_Metal_State_Penalty>
1.9949

>  <b_epik_Metal_Only>
1

>  <s_canvas_Unique_SMILES_Stereo>
[O-]C1=NCC=C1

>  <s_m_subgroup_title>
schrodinger_fragment_collection_epik

>  <s_m_subgroupid>
schrodinger_fragment_collection_epik

>  <b_m_subgroup_collapsed>
0

$$$$
Schrodinger_fragment_399_a
 OpenBabel04062209313D
Schrodinger Suite 2020-2.
 31 32  0  0  1  0  0  0  0  0999 V2000
    2.4399   -2.3129    0.3009 C   0  0  1  0  0  0  0  0  0  0  0  0
    3.7536   -2.9824   -0.2036 C   0  0  0  0  0  0  0  0  0  0  0  0
    4.9564   -2.2165    0.1413 N   0  0  0  0  0  0  0  0  0  0  0  0
    4.9750   -0.8831   -0.0454 C   0  0  0  0  0  0  0  0  0  0  0  0
    3.6596   -0.2421   -0.4857 C   0  0  0  0  0  0  0  0  0  0  0  0
    1.2262   -0.1496   -0.1294 C   0  0  0  0  0  0  0  0  0  0  0  0
    0.0372   -0.8518    0.5349 C   0  0  0  0  0  0  0  0  0  0  0  0
    0.0026   -2.3590    0.2223 C   0  0  0  0  0  0  0  0  0  0  0  0
    5.9716   -0.1829    0.1546 O   0  0  0  0  0  0  0  0  0  0  0  0
    1.1756   -4.2991   -0.4363 C   0  0  0  0  0  0  0  0  0  0  0  0
    6.1422   -2.9509    0.5895 C   0  0  0  0  0  0  0  0  0  0  0  0
    2.3360   -2.5665    1.3583 H   0  0  0  0  0  0  0  0  0  0  0  0
    3.8224   -3.9959    0.1926 H   0  0  0  0  0  0  0  0  0  0  0  0
    3.7316   -3.0770   -1.2911 H   0  0  0  0  0  0  0  0  0  0  0  0
    3.7103    0.8353   -0.3253 H   0  0  0  0  0  0  0  0  0  0  0  0
    3.5372   -0.4029   -1.5573 H   0  0  0  0  0  0  0  0  0  0  0  0
    1.1060   -0.1833   -1.2135 H   0  0  0  0  0  0  0  0  0  0  0  0
    1.2527    0.9037    0.1515 H   0  0  0  0  0  0  0  0  0  0  0  0
    0.0900   -0.7079    1.6151 H   0  0  0  0  0  0  0  0  0  0  0  0
   -0.8972   -0.3856    0.2200 H   0  0  0  0  0  0  0  0  0  0  0  0
   -0.2026   -2.9055    1.1458 H   0  0  0  0  0  0  0  0  0  0  0  0
   -0.8306   -2.5729   -0.4502 H   0  0  0  0  0  0  0  0  0  0  0  0
    0.2483   -4.6308   -0.9067 H   0  0  0  0  0  0  0  0  0  0  0  0
    1.2127   -4.7303    0.5659 H   0  0  0  0  0  0  0  0  0  0  0  0
    1.9872   -4.7319   -1.0220 H   0  0  0  0  0  0  0  0  0  0  0  0
    6.3909   -2.6800    1.6165 H   0  0  0  0  0  0  0  0  0  0  0  0
    7.0035   -2.7152   -0.0378 H   0  0  0  0  0  0  0  0  0  0  0  0
    6.0051   -4.0319    0.5550 H   0  0  0  0  0  0  0  0  0  0  0  0
    2.5004   -0.8094    0.2496 N   0  3  1  0  0  0  0  0  0  0  0  0
    2.6729   -0.5431    1.2085 H   0  0  0  0  0  0  0  0  0  0  0  0
    1.2458   -2.8364   -0.4001 N   0  0  0  0  0  0  0  0  0  0  0  0
  1  2  1  0  0  0  0
  1 12  1  0  0  0  0
  1 29  1  6  0  0  0
  1 31  1  0  0  0  0
  2  3  1  0  0  0  0
  2 13  1  0  0  0  0
  2 14  1  0  0  0  0
  3  4  1  0  0  0  0
  3 11  1  0  0  0  0
  4  5  1  0  0  0  0
  4  9  2  0  0  0  0
  5 15  1  0  0  0  0
  5 16  1  0  0  0  0
  5 29  1  0  0  0  0
  6  7  1  0  0  0  0
  6 17  1  0  0  0  0
  6 18  1  0  0  0  0
  6 29  1  0  0  0  0
  7  8  1  0  0  0  0
  7 19  1  0  0  0  0
  7 20  1  0  0  0  0
  8 21  1  0  0  0  0
  8 22  1  0  0  0  0
  8 31  1  0  0  0  0
 10 23  1  0  0  0  0
 10 24  1  0  0  0  0
 10 25  1  0  0  0  0
 10 31  1  0  0  0  0
 11 26  1  0  0  0  0
 11 27  1  0  0  0  0
 11 28  1  0  0  0  0
 29 30  1  1  0  0  0
M  CHG  1  29   1
M  END
>  <s_m_entry_id>
6961

>  <s_m_entry_name>
Schrodinger_fragment_495

>  <s_m_Source_Path>
/aloy/home/agimeno/Documents/Starting_Project/Part1_SMILES-to-signatures/1.2/Databases/Compounds/Fragment_library/Schrodinger

>  <s_m_Source_File>
schrodinger_fragment_collection_epik.maegz

>  <i_m_Source_File_Index>
592

>  <i_m_number_of_atoms>
32

>  <r_m_molecular_weight>
185.27128

>  <s_m_molecular_formula>
C9H19N3O1

>  <r_epik_Ionization_Penalty>
0.0113

>  <r_epik_Ionization_Penalty_Charging>
0.0113

>  <r_epik_Ionization_Penalty_Neutral>
0.0000

>  <r_epik_State_Penalty>
0.8907

>  <i_epik_Tot_Q>
1

>  <r_epik_Metal_State_Penalty>
0.8907

>  <b_epik_Metal_Only>
0

>  <s_canvas_Unique_SMILES_Stereo>
CN(C1)C(=O)C[N@H+]([C@H]12)CCCN2C

>  <s_m_subgroup_title>
schrodinger_fragment_collection_epik

>  <s_m_subgroupid>
schrodinger_fragment_collection_epik

>  <b_m_subgroup_collapsed>
0

$$$$
Schrodinger_fragment_221_a
 OpenBabel04062209313D
Schrodinger Suite 2020-2.
 14 14  0  0  1  0  0  0  0  0999 V2000
    1.3780   -1.1894    0.0197 C   0  0  0  0  0  0  0  0  0  0  0  0
    1.4726   -2.7465    0.0191 C   0  0  0  0  0  0  0  0  0  0  0  0
    2.5916   -3.3658    0.0233 N   0  0  0  0  0  0  0  0  0  0  0  0
    3.7907   -2.6423    0.0287 C   0  0  0  0  0  0  0  0  0  0  0  0
    3.7928   -1.2949    0.0295 C   0  0  0  0  0  0  0  0  0  0  0  0
    2.5901   -0.5652    0.0251 N   0  0  0  0  0  0  0  0  0  0  0  0
    0.3647   -3.3020    0.0142 O   0  5  0  0  0  0  0  0  0  0  0  0
    0.2944   -0.5836    0.0156 O   0  0  0  0  0  0  0  0  0  0  0  0
    2.6653    0.8979    0.0263 C   0  0  0  0  0  0  0  0  0  0  0  0
    4.7140   -3.2110    0.0321 H   0  0  0  0  0  0  0  0  0  0  0  0
    4.6980   -0.7021    0.0336 H   0  0  0  0  0  0  0  0  0  0  0  0
    3.6909    1.2674    0.0307 H   0  0  0  0  0  0  0  0  0  0  0  0
    2.1659    1.3036    0.9070 H   0  0  0  0  0  0  0  0  0  0  0  0
    2.1731    1.3047   -0.8580 H   0  0  0  0  0  0  0  0  0  0  0  0
  1  2  1  0  0  0  0
  1  6  1  0  0  0  0
  1  8  2  0  0  0  0
  2  3  2  0  0  0  0
  2  7  1  0  0  0  0
  3  4  1  0  0  0  0
  4  5  2  0  0  0  0
  4 10  1  0  0  0  0
  5  6  1  0  0  0  0
  5 11  1  0  0  0  0
  6  9  1  0  0  0  0
  9 12  1  0  0  0  0
  9 13  1  0  0  0  0
  9 14  1  0  0  0  0
M  CHG  1   7  -1
M  END
>  <s_m_entry_id>
6654

>  <s_m_entry_name>
Schrodinger_fragment_278

>  <s_m_Source_Path>
/aloy/home/agimeno/Documents/Starting_Project/Part1_SMILES-to-signatures/1.2/Databases/Compounds/Fragment_library/Schrodinger

>  <s_m_Source_File>
schrodinger_fragment_collection_epik.maegz

>  <i_m_Source_File_Index>
285

>  <i_m_number_of_atoms>
15

>  <r_m_molecular_weight>
126.11577

>  <s_m_molecular_formula>
C5H6N2O2

>  <r_epik_Ionization_Penalty>
6.6049

>  <r_epik_Ionization_Penalty_Charging>
0.1929

>  <r_epik_Ionization_Penalty_Neutral>
6.4120

>  <r_epik_State_Penalty>
6.4120

>  <i_epik_Tot_Q>
-1

>  <r_epik_Metal_State_Penalty>
2.3309

>  <b_epik_Metal_Only>
1

>  <s_canvas_Unique_SMILES_Stereo>
[O-]c1c(=O)n(C)ccn1

>  <s_m_subgroup_title>
schrodinger_fragment_collection_epik

>  <s_m_subgroupid>
schrodinger_fragment_collection_epik

>  <b_m_subgroup_collapsed>
0

$$$$
Schrodinger_fragment_290
 OpenBabel04062209313D
Schrodinger Suite 2020-2.
 29 30  0  0  1  0  0  0  0  0999 V2000
    1.1311   -2.4485   -0.9631 C   0  0  0  0  0  0  0  0  0  0  0  0
    1.7953   -1.5176   -1.6626 N   0  5  0  0  0  0  0  0  0  0  0  0
    1.9366   -3.0572   -0.0853 N   0  0  0  0  0  0  0  0  0  0  0  0
    3.2898   -2.5132   -0.1662 C   0  0  1  0  0  0  0  0  0  0  0  0
    3.0807   -1.4653   -1.2785 C   0  0  0  0  0  0  0  0  0  0  0  0
    3.7182   -1.8670    1.1771 C   0  0  0  0  0  0  0  0  0  0  0  0
    5.1929   -1.4137    1.1772 C   0  0  0  0  0  0  0  0  0  0  0  0
    5.7712   -3.1051   -0.5244 C   0  0  0  0  0  0  0  0  0  0  0  0
    4.3128   -3.6059   -0.5726 C   0  0  0  0  0  0  0  0  0  0  0  0
    3.9726   -0.7311   -1.7057 O   0  0  0  0  0  0  0  0  0  0  0  0
   -0.0620   -2.7314   -1.0868 O   0  0  0  0  0  0  0  0  0  0  0  0
    1.5431   -4.1223    0.8392 C   0  0  0  0  0  0  0  0  0  0  0  0
    7.5309   -2.1317    0.8959 C   0  0  0  0  0  0  0  0  0  0  0  0
    3.0806   -1.0107    1.4024 H   0  0  0  0  0  0  0  0  0  0  0  0
    3.5702   -2.5673    1.9986 H   0  0  0  0  0  0  0  0  0  0  0  0
    5.3393   -0.5699    0.5022 H   0  0  0  0  0  0  0  0  0  0  0  0
    5.4534   -1.0516    2.1727 H   0  0  0  0  0  0  0  0  0  0  0  0
    6.4410   -3.9404   -0.7333 H   0  0  0  0  0  0  0  0  0  0  0  0
    5.9545   -2.3691   -1.3077 H   0  0  0  0  0  0  0  0  0  0  0  0
    4.2216   -4.4724    0.0816 H   0  0  0  0  0  0  0  0  0  0  0  0
    4.0929   -3.9716   -1.5769 H   0  0  0  0  0  0  0  0  0  0  0  0
    2.3705   -4.4653    1.4587 H   0  0  0  0  0  0  0  0  0  0  0  0
    1.1627   -4.9802    0.2837 H   0  0  0  0  0  0  0  0  0  0  0  0
    0.7518   -3.7709    1.5021 H   0  0  0  0  0  0  0  0  0  0  0  0
    8.1825   -2.9803    0.6860 H   0  0  0  0  0  0  0  0  0  0  0  0
    7.7705   -1.7753    1.8980 H   0  0  0  0  0  0  0  0  0  0  0  0
    7.7710   -1.3376    0.1880 H   0  0  0  0  0  0  0  0  0  0  0  0
    6.1067   -2.5224    0.8002 N   0  3  1  0  0  0  0  0  0  0  0  0
    5.9789   -3.2540    1.4840 H   0  0  0  0  0  0  0  0  0  0  0  0
  1  2  1  0  0  0  0
  1  3  1  0  0  0  0
  1 11  2  0  0  0  0
  2  5  1  0  0  0  0
  3  4  1  0  0  0  0
  3 12  1  0  0  0  0
  4  5  1  6  0  0  0
  4  6  1  0  0  0  0
  4  9  1  0  0  0  0
  5 10  2  0  0  0  0
  6  7  1  0  0  0  0
  6 14  1  0  0  0  0
  6 15  1  0  0  0  0
  7 16  1  0  0  0  0
  7 17  1  0  0  0  0
  7 28  1  0  0  0  0
  8  9  1  0  0  0  0
  8 18  1  0  0  0  0
  8 19  1  0  0  0  0
  8 28  1  0  0  0  0
  9 20  1  0  0  0  0
  9 21  1  0  0  0  0
 12 22  1  0  0  0  0
 12 23  1  0  0  0  0
 12 24  1  0  0  0  0
 13 25  1  0  0  0  0
 13 26  1  0  0  0  0
 13 27  1  0  0  0  0
 13 28  1  0  0  0  0
 28 29  1  1  0  0  0
M  CHG  2   2  -1  28   1
M  END
>  <s_m_entry_id>
6748

>  <s_m_entry_name>
Schrodinger_fragment_351

>  <s_m_Source_Path>
/aloy/home/agimeno/Documents/Starting_Project/Part1_SMILES-to-signatures/1.2/Databases/Compounds/Fragment_library/Schrodinger

>  <s_m_Source_File>
schrodinger_fragment_collection_epik.maegz

>  <i_m_Source_File_Index>
379

>  <i_m_number_of_atoms>
30

>  <r_m_molecular_weight>
198.24677

>  <s_m_molecular_formula>
C9H16N3O2

>  <r_epik_Ionization_Penalty>
0.1529

>  <r_epik_Ionization_Penalty_Charging>
0.1529

>  <r_epik_Ionization_Penalty_Neutral>
0.0000

>  <r_epik_State_Penalty>
0.1528

>  <i_epik_Tot_Q>
0

>  <r_epik_Metal_State_Penalty>
0.0002

>  <b_epik_Metal_Only>
0

>  <s_canvas_Unique_SMILES_Stereo>
CN1C(=O)[N-]C(=O)C12CC[NH+](C)CC2

>  <s_m_subgroup_title>
schrodinger_fragment_collection_epik

>  <s_m_subgroupid>
schrodinger_fragment_collection_epik

>  <b_m_subgroup_collapsed>
0

$$$$
Schrodinger_fragment_23_a
 OpenBabel04062209313D
Schrodinger Suite 2020-2.
  9  8  0  0  1  0  0  0  0  0999 V2000
    0.1849   -2.0500    0.2117 C   0  0  0  0  0  0  0  0  0  0  0  0
    1.4268   -0.7750    0.0358 S   0  0  0  0  0  0  0  0  0  0  0  0
    2.7626   -1.6474    0.0069 N   0  5  0  0  0  0  0  0  0  0  0  0
    1.1771   -0.1133   -1.2512 O   0  0  0  0  0  0  0  0  0  0  0  0
    1.3598    0.0499    1.2491 O   0  0  0  0  0  0  0  0  0  0  0  0
   -0.7943   -1.5774    0.2585 H   0  0  0  0  0  0  0  0  0  0  0  0
    0.3706   -2.6045    1.1291 H   0  0  0  0  0  0  0  0  0  0  0  0
    0.2311   -2.7165   -0.6468 H   0  0  0  0  0  0  0  0  0  0  0  0
    2.9891   -1.8014   -0.9851 H   0  0  0  0  0  0  0  0  0  0  0  0
  1  2  1  0  0  0  0
  1  6  1  0  0  0  0
  1  7  1  0  0  0  0
  1  8  1  0  0  0  0
  2  3  1  0  0  0  0
  2  4  2  0  0  0  0
  2  5  2  0  0  0  0
  3  9  1  0  0  0  0
M  CHG  1   3  -1
M  END
>  <s_m_entry_id>
6394

>  <s_m_entry_name>
Schrodinger_fragment_23

>  <s_m_Source_Path>
/aloy/home/agimeno/Documents/Starting_Project/Part1_SMILES-to-signatures/1.2/Databases/Compounds/Fragment_library/Schrodinger

>  <s_m_Source_File>
schrodinger_fragment_collection_epik.maegz

>  <i_m_Source_File_Index>
25

>  <i_m_number_of_atoms>
10

>  <r_m_molecular_weight>
95.1205

>  <s_m_molecular_formula>
C1H5N1O2S1

>  <r_epik_Ionization_Penalty>
5.1501

>  <r_epik_Ionization_Penalty_Charging>
5.1501

>  <r_epik_Ionization_Penalty_Neutral>
0.0000

>  <r_epik_State_Penalty>
5.1500

>  <i_epik_Tot_Q>
-1

>  <r_epik_Metal_State_Penalty>
1.1492

>  <b_epik_Metal_Only>
1

>  <s_canvas_Unique_SMILES_Stereo>
CS(=O)(=O)[NH-]

>  <s_m_subgroup_title>
schrodinger_fragment_collection_epik

>  <s_m_subgroupid>
schrodinger_fragment_collection_epik

>  <b_m_subgroup_collapsed>
0

$$$$
Schrodinger_fragment_226_a
 OpenBabel04062209313D
Schrodinger Suite 2020-2.
 12 12  0  0  1  0  0  0  0  0999 V2000
    1.1999    3.4996    0.2386 C   0  0  0  0  0  0  0  0  0  0  0  0
    1.3208    2.1063    0.2161 N   0  0  0  0  0  0  0  0  0  0  0  0
    2.5185    1.4039    0.2045 C   0  0  0  0  0  0  0  0  0  0  0  0
    3.6859    2.1603    0.2164 N   0  0  0  0  0  0  0  0  0  0  0  0
    3.6402    3.5281    0.2385 C   0  0  0  0  0  0  0  0  0  0  0  0
    2.4746    4.2214    0.2500 C   0  0  0  0  0  0  0  0  0  0  0  0
    4.8467    4.1479    0.2481 O   0  5  0  0  0  0  0  0  0  0  0  0
    0.0819    4.0195    0.2473 O   0  0  0  0  0  0  0  0  0  0  0  0
    2.5619    0.1806    0.1848 O   0  0  0  0  0  0  0  0  0  0  0  0
    0.4610    1.5707    0.2077 H   0  0  0  0  0  0  0  0  0  0  0  0
    4.5723    1.6532    0.2080 H   0  0  0  0  0  0  0  0  0  0  0  0
    2.4679    5.3032    0.2674 H   0  0  0  0  0  0  0  0  0  0  0  0
  1  2  1  0  0  0  0
  1  6  1  0  0  0  0
  1  8  2  0  0  0  0
  2  3  1  0  0  0  0
  2 10  1  0  0  0  0
  3  4  1  0  0  0  0
  3  9  2  0  0  0  0
  4  5  1  0  0  0  0
  4 11  1  0  0  0  0
  5  6  2  0  0  0  0
  5  7  1  0  0  0  0
  6 12  1  0  0  0  0
M  CHG  1   7  -1
M  END
>  <s_m_entry_id>
6662

>  <s_m_entry_name>
Schrodinger_fragment_287

>  <s_m_Source_Path>
/aloy/home/agimeno/Documents/Starting_Project/Part1_SMILES-to-signatures/1.2/Databases/Compounds/Fragment_library/Schrodinger

>  <s_m_Source_File>
schrodinger_fragment_collection_epik.maegz

>  <i_m_Source_File_Index>
293

>  <i_m_number_of_atoms>
13

>  <r_m_molecular_weight>
128.08808

>  <s_m_molecular_formula>
C4H4N2O3

>  <r_epik_Ionization_Penalty>
0.0007

>  <r_epik_Ionization_Penalty_Charging>
0.0001

>  <r_epik_Ionization_Penalty_Neutral>
0.0006

>  <r_epik_State_Penalty>
0.8805

>  <i_epik_Tot_Q>
-1

>  <r_epik_Metal_State_Penalty>
4.8215

>  <b_epik_Metal_Only>
0

>  <s_canvas_Unique_SMILES_Stereo>
[O-]c1cc(=O)[nH]c(=O)[nH]1

>  <s_m_subgroup_title>
schrodinger_fragment_collection_epik

>  <s_m_subgroupid>
schrodinger_fragment_collection_epik

>  <b_m_subgroup_collapsed>
0

$$$$
Schrodinger_fragment_206_b
 OpenBabel04062209313D
Schrodinger Suite 2020-2.
 10 10  0  0  1  0  0  0  0  0999 V2000
    0.0745    2.1472    0.0179 N   0  0  0  0  0  0  0  0  0  0  0  0
    0.1249    0.8125    0.0238 C   0  0  0  0  0  0  0  0  0  0  0  0
    1.2322    0.0871    0.0294 N   0  0  0  0  0  0  0  0  0  0  0  0
    2.4054    0.7486    0.0292 C   0  0  0  0  0  0  0  0  0  0  0  0
    2.4488    2.1496    0.0232 C   0  0  0  0  0  0  0  0  0  0  0  0
    1.2294    2.8090    0.0176 C   0  0  0  0  0  0  0  0  0  0  0  0
    1.1206    4.1598    0.0114 O   0  5  0  0  0  0  0  0  0  0  0  0
   -0.8156    0.2839    0.0240 H   0  0  0  0  0  0  0  0  0  0  0  0
    3.3093    0.1577    0.0337 H   0  0  0  0  0  0  0  0  0  0  0  0
    3.3974    2.6750    0.0230 H   0  0  0  0  0  0  0  0  0  0  0  0
  1  2  1  0  0  0  0
  1  6  2  0  0  0  0
  2  3  2  0  0  0  0
  2  8  1  0  0  0  0
  3  4  1  0  0  0  0
  4  5  2  0  0  0  0
  4  9  1  0  0  0  0
  5  6  1  0  0  0  0
  5 10  1  0  0  0  0
  6  7  1  0  0  0  0
M  CHG  1   7  -1
M  END
>  <s_m_entry_id>
6632

>  <s_m_entry_name>
Schrodinger_fragment_262

>  <s_m_Source_Path>
/aloy/home/agimeno/Documents/Starting_Project/Part1_SMILES-to-signatures/1.2/Databases/Compounds/Fragment_library/Schrodinger

>  <s_m_Source_File>
schrodinger_fragment_collection_epik.maegz

>  <i_m_Source_File_Index>
263

>  <i_m_number_of_atoms>
11

>  <r_m_molecular_weight>
96.08928

>  <s_m_molecular_formula>
C4H4N2O1

>  <r_epik_Ionization_Penalty>
4.2296

>  <r_epik_Ionization_Penalty_Charging>
0.0000

>  <r_epik_Ionization_Penalty_Neutral>
4.2296

>  <r_epik_State_Penalty>
2.5639

>  <i_epik_Tot_Q>
-1

>  <r_epik_Metal_State_Penalty>
0.4639

>  <b_epik_Metal_Only>
0

>  <s_canvas_Unique_SMILES_Stereo>
[O-]c1ccncn1

>  <s_m_subgroup_title>
schrodinger_fragment_collection_epik

>  <s_m_subgroupid>
schrodinger_fragment_collection_epik

>  <b_m_subgroup_collapsed>
0

$$$$
Schrodinger_fragment_402
 OpenBabel04062209313D
Schrodinger Suite 2020-2.
 31 32  0  0  1  0  0  0  0  0999 V2000
    2.4160   -2.2925   -0.7237 C   0  0  2  0  0  0  0  0  0  0  0  0
    3.4760   -2.8727    0.2520 C   0  0  0  0  0  0  0  0  0  0  0  0
    4.7250   -2.0996    0.3024 N   0  0  0  0  0  0  0  0  0  0  0  0
    4.8675   -0.8511   -0.2001 C   0  0  0  0  0  0  0  0  0  0  0  0
    3.6716   -0.1745   -0.8871 C   0  0  0  0  0  0  0  0  0  0  0  0
    1.6932   -0.3341    0.6131 C   0  0  0  0  0  0  0  0  0  0  0  0
    0.3075   -0.9800    0.7574 C   0  0  0  0  0  0  0  0  0  0  0  0
    0.3974   -2.5097    0.6722 C   0  0  0  0  0  0  0  0  0  0  0  0
    5.9328   -0.2314   -0.1279 O   0  0  0  0  0  0  0  0  0  0  0  0
    1.0496   -4.3219   -0.7688 C   0  0  0  0  0  0  0  0  0  0  0  0
    5.8446   -2.7659    0.9738 C   0  0  0  0  0  0  0  0  0  0  0  0
    2.7500   -2.5176   -1.7391 H   0  0  0  0  0  0  0  0  0  0  0  0
    3.0927   -2.9207    1.2707 H   0  0  0  0  0  0  0  0  0  0  0  0
    3.7091   -3.8980   -0.0376 H   0  0  0  0  0  0  0  0  0  0  0  0
    3.6430    0.8827   -0.6224 H   0  0  0  0  0  0  0  0  0  0  0  0
    3.8577   -0.2142   -1.9604 H   0  0  0  0  0  0  0  0  0  0  0  0
    1.5894    0.7510    0.5843 H   0  0  0  0  0  0  0  0  0  0  0  0
    2.3064   -0.5664    1.4845 H   0  0  0  0  0  0  0  0  0  0  0  0
   -0.1405   -0.6871    1.7076 H   0  0  0  0  0  0  0  0  0  0  0  0
   -0.3604   -0.6064   -0.0202 H   0  0  0  0  0  0  0  0  0  0  0  0
    0.9195   -2.9174    1.5392 H   0  0  0  0  0  0  0  0  0  0  0  0
   -0.6091   -2.9319    0.6923 H   0  0  0  0  0  0  0  0  0  0  0  0
    0.0239   -4.6927   -0.8020 H   0  0  0  0  0  0  0  0  0  0  0  0
    1.5618   -4.8467    0.0393 H   0  0  0  0  0  0  0  0  0  0  0  0
    1.5251   -4.6013   -1.7104 H   0  0  0  0  0  0  0  0  0  0  0  0
    6.2373   -2.1474    1.7827 H   0  0  0  0  0  0  0  0  0  0  0  0
    6.6557   -2.9554    0.2691 H   0  0  0  0  0  0  0  0  0  0  0  0
    5.5549   -3.7227    1.4101 H   0  0  0  0  0  0  0  0  0  0  0  0
    2.3577   -0.8121   -0.6262 N   0  3  2  0  0  0  0  0  0  0  0  0
    1.7626   -0.5092   -1.3820 H   0  0  0  0  0  0  0  0  0  0  0  0
    1.0656   -2.8726   -0.5809 N   0  0  0  0  0  0  0  0  0  0  0  0
  1  2  1  0  0  0  0
  1 12  1  0  0  0  0
  1 29  1  1  0  0  0
  1 31  1  0  0  0  0
  2  3  1  0  0  0  0
  2 13  1  0  0  0  0
  2 14  1  0  0  0  0
  3  4  1  0  0  0  0
  3 11  1  0  0  0  0
  4  5  1  0  0  0  0
  4  9  2  0  0  0  0
  5 15  1  0  0  0  0
  5 16  1  0  0  0  0
  5 29  1  0  0  0  0
  6  7  1  0  0  0  0
  6 17  1  0  0  0  0
  6 18  1  0  0  0  0
  6 29  1  0  0  0  0
  7  8  1  0  0  0  0
  7 19  1  0  0  0  0
  7 20  1  0  0  0  0
  8 21  1  0  0  0  0
  8 22  1  0  0  0  0
  8 31  1  0  0  0  0
 10 23  1  0  0  0  0
 10 24  1  0  0  0  0
 10 25  1  0  0  0  0
 10 31  1  0  0  0  0
 11 26  1  0  0  0  0
 11 27  1  0  0  0  0
 11 28  1  0  0  0  0
 29 30  1  6  0  0  0
M  CHG  1  29   1
M  END
>  <s_m_entry_id>
6965

>  <s_m_entry_name>
Schrodinger_fragment_498

>  <s_m_Source_Path>
/aloy/home/agimeno/Documents/Starting_Project/Part1_SMILES-to-signatures/1.2/Databases/Compounds/Fragment_library/Schrodinger

>  <s_m_Source_File>
schrodinger_fragment_collection_epik.maegz

>  <i_m_Source_File_Index>
596

>  <i_m_number_of_atoms>
32

>  <r_m_molecular_weight>
185.27128

>  <s_m_molecular_formula>
C9H19N3O1

>  <r_epik_Ionization_Penalty>
0.0113

>  <r_epik_Ionization_Penalty_Charging>
0.0113

>  <r_epik_Ionization_Penalty_Neutral>
0.0000

>  <r_epik_State_Penalty>
0.8907

>  <i_epik_Tot_Q>
1

>  <r_epik_Metal_State_Penalty>
0.8907

>  <b_epik_Metal_Only>
0

>  <s_canvas_Unique_SMILES_Stereo>
CN(C1)C(=O)C[N@@H+]([C@@H]12)CCCN2C

>  <s_m_subgroup_title>
schrodinger_fragment_collection_epik

>  <s_m_subgroupid>
schrodinger_fragment_collection_epik

>  <b_m_subgroup_collapsed>
0

$$$$
Schrodinger_fragment_422
 OpenBabel04062209313D
Schrodinger Suite 2020-2.
 27 28  0  0  1  0  0  0  0  0999 V2000
    1.4459   -2.2339    0.0505 N   0  0  0  0  0  0  0  0  0  0  0  0
    1.3862   -3.6329   -0.0370 C   0  0  0  0  0  0  0  0  0  0  0  0
    2.6023   -4.3524    0.0285 N   0  0  0  0  0  0  0  0  0  0  0  0
    3.8309   -3.6590    0.0277 C   0  0  0  0  0  0  0  0  0  0  0  0
    3.8654   -2.2926    0.1035 C   0  0  0  0  0  0  0  0  0  0  0  0
    2.6396   -1.4951    0.1518 C   0  0  0  0  0  0  0  0  0  0  0  0
    5.1236   -4.3945   -0.1217 C   0  0  0  0  0  0  0  0  0  0  0  0
    6.2689   -3.6515   -0.0481 N   0  0  0  0  0  0  0  0  0  0  0  0
    6.2643   -2.2570    0.0656 C   0  0  0  0  0  0  0  0  0  0  0  0
    5.1212   -1.5685    0.1300 C   0  0  0  0  0  0  0  0  0  0  0  0
    0.2946   -4.2012   -0.1517 O   0  0  0  0  0  0  0  0  0  0  0  0
    2.6271   -0.2631    0.2599 O   0  0  0  0  0  0  0  0  0  0  0  0
    5.2163   -5.6114   -0.3285 O   0  0  0  0  0  0  0  0  0  0  0  0
    7.5779   -4.3085   -0.1369 C   0  0  0  0  0  0  0  0  0  0  0  0
    2.4641   -5.7959    0.1523 C   0  0  0  0  0  0  0  0  0  0  0  0
    0.1743   -1.5321    0.0369 C   0  0  0  0  0  0  0  0  0  0  0  0
    7.2367   -1.7846    0.0837 H   0  0  0  0  0  0  0  0  0  0  0  0
    5.1466   -0.4899    0.2108 H   0  0  0  0  0  0  0  0  0  0  0  0
    8.4096   -3.6265    0.0408 H   0  0  0  0  0  0  0  0  0  0  0  0
    7.7169   -4.7454   -1.1266 H   0  0  0  0  0  0  0  0  0  0  0  0
    7.6593   -5.1092    0.5999 H   0  0  0  0  0  0  0  0  0  0  0  0
    3.1738   -6.1325    0.9079 H   0  0  0  0  0  0  0  0  0  0  0  0
    2.6711   -6.2263   -0.8284 H   0  0  0  0  0  0  0  0  0  0  0  0
    1.4738   -6.0848    0.5058 H   0  0  0  0  0  0  0  0  0  0  0  0
    0.3074   -0.4523    0.0893 H   0  0  0  0  0  0  0  0  0  0  0  0
   -0.3941   -1.8759    0.9030 H   0  0  0  0  0  0  0  0  0  0  0  0
   -0.3302   -1.7905   -0.8960 H   0  0  0  0  0  0  0  0  0  0  0  0
  1  2  1  0  0  0  0
  1  6  1  0  0  0  0
  1 16  1  0  0  0  0
  2  3  1  0  0  0  0
  2 11  2  0  0  0  0
  3  4  1  0  0  0  0
  3 15  1  0  0  0  0
  4  5  2  0  0  0  0
  4  7  1  0  0  0  0
  5  6  1  0  0  0  0
  5 10  1  0  0  0  0
  6 12  2  0  0  0  0
  7  8  1  0  0  0  0
  7 13  2  0  0  0  0
  8  9  1  0  0  0  0
  8 14  1  0  0  0  0
  9 10  2  0  0  0  0
  9 17  1  0  0  0  0
 10 18  1  0  0  0  0
 14 19  1  0  0  0  0
 14 20  1  0  0  0  0
 14 21  1  0  0  0  0
 15 22  1  0  0  0  0
 15 23  1  0  0  0  0
 15 24  1  0  0  0  0
 16 25  1  0  0  0  0
 16 26  1  0  0  0  0
 16 27  1  0  0  0  0
M  END
>  <s_m_entry_id>
7008

>  <s_m_entry_name>
Schrodinger_fragment_526

>  <s_m_Source_Path>
/aloy/home/agimeno/Documents/Starting_Project/Part1_SMILES-to-signatures/1.2/Databases/Compounds/Fragment_library/Schrodinger

>  <s_m_Source_File>
schrodinger_fragment_collection_epik.maegz

>  <i_m_Source_File_Index>
639

>  <i_m_number_of_atoms>
27

>  <r_m_molecular_weight>
221.21747

>  <s_m_molecular_formula>
C10H11N3O3

>  <r_epik_Ionization_Penalty>
0.0000

>  <r_epik_Ionization_Penalty_Charging>
0.0000

>  <r_epik_Ionization_Penalty_Neutral>
0.0000

>  <r_epik_State_Penalty>
0.0000

>  <i_epik_Tot_Q>
0

>  <r_epik_Metal_State_Penalty>
0.0000

>  <b_epik_Metal_Only>
0

>  <s_canvas_Unique_SMILES_Stereo>
O=c1n(C)c(=O)n(C)c(c12)c(=O)n(C)cc2

>  <s_m_subgroup_title>
schrodinger_fragment_collection_epik

>  <s_m_subgroupid>
schrodinger_fragment_collection_epik

>  <b_m_subgroup_collapsed>
0

$$$$
Schrodinger_fragment_396
 OpenBabel04062209313D
Schrodinger Suite 2020-2.
 28 29  0  0  1  0  0  0  0  0999 V2000
    2.4891   -2.3249   -0.5151 C   0  0  2  0  0  0  0  0  0  0  0  0
    3.3687   -2.7982    0.6767 C   0  0  0  0  0  0  0  0  0  0  0  0
    4.5685   -1.9830    0.8623 N   0  0  0  0  0  0  0  0  0  0  0  0
    4.8006   -0.7902    0.3002 C   0  0  0  0  0  0  0  0  0  0  0  0
    3.7468   -0.1934   -0.6442 C   0  0  0  0  0  0  0  0  0  0  0  0
    1.5372   -0.2694    0.4931 C   0  0  0  0  0  0  0  0  0  0  0  0
    0.1501   -0.9269    0.4511 C   0  0  0  0  0  0  0  0  0  0  0  0
    0.2589   -2.4560    0.5219 C   0  0  0  0  0  0  0  0  0  0  0  0
    5.8410   -0.1749    0.5280 O   0  0  0  0  0  0  0  0  0  0  0  0
    1.1575   -4.3750   -0.6184 C   0  0  0  0  0  0  0  0  0  0  0  0
    2.9954   -2.6310   -1.4332 H   0  0  0  0  0  0  0  0  0  0  0  0
    2.8184   -2.7712    1.6165 H   0  0  0  0  0  0  0  0  0  0  0  0
    3.6759   -3.8343    0.5317 H   0  0  0  0  0  0  0  0  0  0  0  0
    5.2823   -2.3560    1.4744 H   0  0  0  0  0  0  0  0  0  0  0  0
    3.6651    0.8812   -0.4785 H   0  0  0  0  0  0  0  0  0  0  0  0
    4.1205   -0.3166   -1.6609 H   0  0  0  0  0  0  0  0  0  0  0  0
    1.4355    0.8067    0.3498 H   0  0  0  0  0  0  0  0  0  0  0  0
    1.9895   -0.4124    1.4751 H   0  0  0  0  0  0  0  0  0  0  0  0
   -0.4589   -0.5597    1.2780 H   0  0  0  0  0  0  0  0  0  0  0  0
   -0.3721   -0.6366   -0.4618 H   0  0  0  0  0  0  0  0  0  0  0  0
    0.6231   -2.7752    1.4997 H   0  0  0  0  0  0  0  0  0  0  0  0
   -0.7343   -2.8939    0.4053 H   0  0  0  0  0  0  0  0  0  0  0  0
    0.1539   -4.7657   -0.7938 H   0  0  0  0  0  0  0  0  0  0  0  0
    1.5247   -4.8197    0.3080 H   0  0  0  0  0  0  0  0  0  0  0  0
    1.7880   -4.7257   -1.4370 H   0  0  0  0  0  0  0  0  0  0  0  0
    2.4113   -0.8399   -0.5632 N   0  3  2  0  0  0  0  0  0  0  0  0
    1.9585   -0.6177   -1.4356 H   0  0  0  0  0  0  0  0  0  0  0  0
    1.1363   -2.9147   -0.5588 N   0  0  0  0  0  0  0  0  0  0  0  0
  1  2  1  0  0  0  0
  1 11  1  0  0  0  0
  1 26  1  1  0  0  0
  1 28  1  0  0  0  0
  2  3  1  0  0  0  0
  2 12  1  0  0  0  0
  2 13  1  0  0  0  0
  3  4  1  0  0  0  0
  3 14  1  0  0  0  0
  4  5  1  0  0  0  0
  4  9  2  0  0  0  0
  5 15  1  0  0  0  0
  5 16  1  0  0  0  0
  5 26  1  0  0  0  0
  6  7  1  0  0  0  0
  6 17  1  0  0  0  0
  6 18  1  0  0  0  0
  6 26  1  0  0  0  0
  7  8  1  0  0  0  0
  7 19  1  0  0  0  0
  7 20  1  0  0  0  0
  8 21  1  0  0  0  0
  8 22  1  0  0  0  0
  8 28  1  0  0  0  0
 10 23  1  0  0  0  0
 10 24  1  0  0  0  0
 10 25  1  0  0  0  0
 10 28  1  0  0  0  0
 26 27  1  6  0  0  0
M  CHG  1  26   1
M  END
>  <s_m_entry_id>
6954

>  <s_m_entry_name>
Schrodinger_fragment_490

>  <s_m_Source_Path>
/aloy/home/agimeno/Documents/Starting_Project/Part1_SMILES-to-signatures/1.2/Databases/Compounds/Fragment_library/Schrodinger

>  <s_m_Source_File>
schrodinger_fragment_collection_epik.maegz

>  <i_m_Source_File_Index>
585

>  <i_m_number_of_atoms>
29

>  <r_m_molecular_weight>
171.24419

>  <s_m_molecular_formula>
C8H17N3O1

>  <r_epik_Ionization_Penalty>
0.0185

>  <r_epik_Ionization_Penalty_Charging>
0.0161

>  <r_epik_Ionization_Penalty_Neutral>
0.0024

>  <r_epik_State_Penalty>
0.9254

>  <i_epik_Tot_Q>
1

>  <r_epik_Metal_State_Penalty>
1.8764

>  <b_epik_Metal_Only>
0

>  <s_canvas_Unique_SMILES_Stereo>
CN1CCC[N@H+]([C@H]12)CC(=O)NC2

>  <s_m_subgroup_title>
schrodinger_fragment_collection_epik

>  <s_m_subgroupid>
schrodinger_fragment_collection_epik

>  <b_m_subgroup_collapsed>
0

$$$$
Schrodinger_fragment_394_a
 OpenBabel04062209313D
Schrodinger Suite 2020-2.
 28 29  0  0  1  0  0  0  0  0999 V2000
    2.5040   -2.2459   -0.3996 C   0  0  2  0  0  0  0  0  0  0  0  0
    3.5821   -2.9962    0.4214 C   0  0  0  0  0  0  0  0  0  0  0  0
    4.8052   -2.1985    0.5814 N   0  0  0  0  0  0  0  0  0  0  0  0
    4.9349   -0.8901    0.3027 C   0  0  0  0  0  0  0  0  0  0  0  0
    3.7002   -0.1114   -0.1809 C   0  0  0  0  0  0  0  0  0  0  0  0
    1.1987   -0.1465   -0.2267 C   0  0  0  0  0  0  0  0  0  0  0  0
   -0.0000   -0.8941    0.3970 C   0  0  0  0  0  0  0  0  0  0  0  0
    0.2385   -2.4116    0.5724 C   0  0  0  0  0  0  0  0  0  0  0  0
    6.0135   -0.3149    0.4387 O   0  0  0  0  0  0  0  0  0  0  0  0
    1.1824   -4.3351   -0.5637 C   0  0  0  0  0  0  0  0  0  0  0  0
    2.8477   -2.2069   -1.4356 H   0  0  0  0  0  0  0  0  0  0  0  0
    3.2058   -3.2457    1.4147 H   0  0  0  0  0  0  0  0  0  0  0  0
    3.8475   -3.9381   -0.0601 H   0  0  0  0  0  0  0  0  0  0  0  0
    5.6297   -2.6893    0.9027 H   0  0  0  0  0  0  0  0  0  0  0  0
    3.6785    0.8615    0.3111 H   0  0  0  0  0  0  0  0  0  0  0  0
    3.7890    0.0690   -1.2527 H   0  0  0  0  0  0  0  0  0  0  0  0
    1.0987   -0.1095   -1.3125 H   0  0  0  0  0  0  0  0  0  0  0  0
    1.2229    0.8855    0.1244 H   0  0  0  0  0  0  0  0  0  0  0  0
   -0.2439   -0.4642    1.3695 H   0  0  0  0  0  0  0  0  0  0  0  0
   -0.8789   -0.7259   -0.2267 H   0  0  0  0  0  0  0  0  0  0  0  0
    0.6456   -2.6289    1.5622 H   0  0  0  0  0  0  0  0  0  0  0  0
   -0.7152   -2.9389    0.5067 H   0  0  0  0  0  0  0  0  0  0  0  0
    0.1819   -4.7160   -0.7744 H   0  0  0  0  0  0  0  0  0  0  0  0
    1.5262   -4.8077    0.3579 H   0  0  0  0  0  0  0  0  0  0  0  0
    1.8300   -4.6615   -1.3791 H   0  0  0  0  0  0  0  0  0  0  0  0
    2.4521   -0.8502    0.1109 N   0  3  1  0  0  0  0  0  0  0  0  0
    2.4583   -0.9361    1.1152 H   0  0  0  0  0  0  0  0  0  0  0  0
    1.1654   -2.8776   -0.4583 N   0  0  0  0  0  0  0  0  0  0  0  0
  1  2  1  0  0  0  0
  1 11  1  0  0  0  0
  1 26  1  1  0  0  0
  1 28  1  0  0  0  0
  2  3  1  0  0  0  0
  2 12  1  0  0  0  0
  2 13  1  0  0  0  0
  3  4  1  0  0  0  0
  3 14  1  0  0  0  0
  4  5  1  0  0  0  0
  4  9  2  0  0  0  0
  5 15  1  0  0  0  0
  5 16  1  0  0  0  0
  5 26  1  0  0  0  0
  6  7  1  0  0  0  0
  6 17  1  0  0  0  0
  6 18  1  0  0  0  0
  6 26  1  0  0  0  0
  7  8  1  0  0  0  0
  7 19  1  0  0  0  0
  7 20  1  0  0  0  0
  8 21  1  0  0  0  0
  8 22  1  0  0  0  0
  8 28  1  0  0  0  0
 10 23  1  0  0  0  0
 10 24  1  0  0  0  0
 10 25  1  0  0  0  0
 10 28  1  0  0  0  0
 26 27  1  1  0  0  0
M  CHG  1  26   1
M  END
>  <s_m_entry_id>
6949

>  <s_m_entry_name>
Schrodinger_fragment_488

>  <s_m_Source_Path>
/aloy/home/agimeno/Documents/Starting_Project/Part1_SMILES-to-signatures/1.2/Databases/Compounds/Fragment_library/Schrodinger

>  <s_m_Source_File>
schrodinger_fragment_collection_epik.maegz

>  <i_m_Source_File_Index>
580

>  <i_m_number_of_atoms>
29

>  <r_m_molecular_weight>
171.24419

>  <s_m_molecular_formula>
C8H17N3O1

>  <r_epik_Ionization_Penalty>
0.0185

>  <r_epik_Ionization_Penalty_Charging>
0.0161

>  <r_epik_Ionization_Penalty_Neutral>
0.0024

>  <r_epik_State_Penalty>
0.9254

>  <i_epik_Tot_Q>
1

>  <r_epik_Metal_State_Penalty>
1.8764

>  <b_epik_Metal_Only>
0

>  <s_canvas_Unique_SMILES_Stereo>
CN1CCC[N@@H+]([C@H]12)CC(=O)NC2

>  <s_m_subgroup_title>
schrodinger_fragment_collection_epik

>  <s_m_subgroupid>
schrodinger_fragment_collection_epik

>  <b_m_subgroup_collapsed>
0

$$$$
Schrodinger_fragment_140_b
 OpenBabel04062209313D
Schrodinger Suite 2020-2.
 12 13  0  0  1  0  0  0  0  0999 V2000
    4.4626    2.0805    0.0262 C   0  0  0  0  0  0  0  0  0  0  0  0
    4.5751    0.7515    0.0281 N   0  0  0  0  0  0  0  0  0  0  0  0
    3.4248    0.0494    0.0274 C   0  0  0  0  0  0  0  0  0  0  0  0
    2.1883    0.7220    0.0248 C   0  0  0  0  0  0  0  0  0  0  0  0
    2.1998    2.1006    0.0230 C   0  0  0  0  0  0  0  0  0  0  0  0
    3.3359    2.7966    0.0237 N   0  0  0  0  0  0  0  0  0  0  0  0
    0.9287    0.3160    0.0235 N   0  5  0  0  0  0  0  0  0  0  0  0
    0.1620    1.4337    0.0210 C   0  0  0  0  0  0  0  0  0  0  0  0
    0.9097    2.5612    0.0206 N   0  0  0  0  0  0  0  0  0  0  0  0
    5.3859    2.6397    0.0268 H   0  0  0  0  0  0  0  0  0  0  0  0
    3.4929   -1.0287    0.0289 H   0  0  0  0  0  0  0  0  0  0  0  0
   -0.9240    1.3612    0.0195 H   0  0  0  0  0  0  0  0  0  0  0  0
  1  2  2  0  0  0  0
  1  6  1  0  0  0  0
  1 10  1  0  0  0  0
  2  3  1  0  0  0  0
  3  4  2  0  0  0  0
  3 11  1  0  0  0  0
  4  5  1  0  0  0  0
  4  7  1  0  0  0  0
  5  6  2  0  0  0  0
  5  9  1  0  0  0  0
  7  8  1  0  0  0  0
  8  9  2  0  0  0  0
  8 12  1  0  0  0  0
M  CHG  1   7  -1
M  END
>  <s_m_entry_id>
6544

>  <s_m_entry_name>
Schrodinger_fragment_182

>  <s_m_Source_Path>
/aloy/home/agimeno/Documents/Starting_Project/Part1_SMILES-to-signatures/1.2/Databases/Compounds/Fragment_library/Schrodinger

>  <s_m_Source_File>
schrodinger_fragment_collection_epik.maegz

>  <i_m_Source_File_Index>
175

>  <i_m_number_of_atoms>
13

>  <r_m_molecular_weight>
120.11443

>  <s_m_molecular_formula>
C5H4N4

>  <r_epik_Ionization_Penalty>
5.7628

>  <r_epik_Ionization_Penalty_Charging>
2.7993

>  <r_epik_Ionization_Penalty_Neutral>
2.9635

>  <r_epik_State_Penalty>
3.2025

>  <i_epik_Tot_Q>
-1

>  <r_epik_Metal_State_Penalty>
0.6883

>  <b_epik_Metal_Only>
1

>  <s_canvas_Unique_SMILES_Stereo>
[n-]1cnc(c12)ncnc2

>  <s_m_subgroup_title>
schrodinger_fragment_collection_epik

>  <s_m_subgroupid>
schrodinger_fragment_collection_epik

>  <b_m_subgroup_collapsed>
0

$$$$
Schrodinger_fragment_223_a
 OpenBabel04062209313D
Schrodinger Suite 2020-2.
 13 13  0  0  1  0  0  0  0  0999 V2000
    0.0957    2.1791   -0.0841 N   0  0  0  0  0  0  0  0  0  0  0  0
    0.0659    0.7499    0.2572 C   0  0  0  0  0  0  0  0  0  0  0  0
    1.3063    0.0750   -0.0997 N   0  0  0  0  0  0  0  0  0  0  0  0
    2.4932    0.6708    0.0300 C   0  0  0  0  0  0  0  0  0  0  0  0
    2.4733    2.1480    0.4505 C   0  0  0  0  0  0  0  0  0  0  0  0
    1.1703    2.8478    0.0262 C   0  0  0  0  0  0  0  0  0  0  0  0
    1.2299    4.0612   -0.1966 O   0  5  0  0  0  0  0  0  0  0  0  0
    3.5553    0.0750   -0.1707 O   0  0  0  0  0  0  0  0  0  0  0  0
   -0.1287    0.6139    1.3237 H   0  0  0  0  0  0  0  0  0  0  0  0
   -0.7531    0.2581   -0.2710 H   0  0  0  0  0  0  0  0  0  0  0  0
    1.2658   -0.9033   -0.3616 H   0  0  0  0  0  0  0  0  0  0  0  0
    2.5897    2.2109    1.5335 H   0  0  0  0  0  0  0  0  0  0  0  0
    3.3355    2.6505    0.0074 H   0  0  0  0  0  0  0  0  0  0  0  0
  1  2  1  0  0  0  0
  1  6  2  0  0  0  0
  2  3  1  0  0  0  0
  2  9  1  0  0  0  0
  2 10  1  0  0  0  0
  3  4  1  0  0  0  0
  3 11  1  0  0  0  0
  4  5  1  0  0  0  0
  4  8  2  0  0  0  0
  5  6  1  0  0  0  0
  5 12  1  0  0  0  0
  5 13  1  0  0  0  0
  6  7  1  0  0  0  0
M  CHG  1   7  -1
M  END
>  <s_m_entry_id>
6657

>  <s_m_entry_name>
Schrodinger_fragment_280

>  <s_m_Source_Path>
/aloy/home/agimeno/Documents/Starting_Project/Part1_SMILES-to-signatures/1.2/Databases/Compounds/Fragment_library/Schrodinger

>  <s_m_Source_File>
schrodinger_fragment_collection_epik.maegz

>  <i_m_Source_File_Index>
288

>  <i_m_number_of_atoms>
14

>  <r_m_molecular_weight>
114.10462

>  <s_m_molecular_formula>
C4H6N2O2

>  <r_epik_Ionization_Penalty>
5.9678

>  <r_epik_Ionization_Penalty_Charging>
5.9678

>  <r_epik_Ionization_Penalty_Neutral>
0.0000

>  <r_epik_State_Penalty>
5.9678

>  <i_epik_Tot_Q>
-1

>  <r_epik_Metal_State_Penalty>
1.8995

>  <b_epik_Metal_Only>
1

>  <s_canvas_Unique_SMILES_Stereo>
[O-]C1=NCNC(=O)C1

>  <s_m_subgroup_title>
schrodinger_fragment_collection_epik

>  <s_m_subgroupid>
schrodinger_fragment_collection_epik

>  <b_m_subgroup_collapsed>
0

$$$$
Schrodinger_fragment_66_a
 OpenBabel04062209313D
Schrodinger Suite 2020-2.
 18 18  0  0  1  0  0  0  0  0999 V2000
    3.6616   -0.3778    0.2356 C   0  0  0  0  0  0  0  0  0  0  0  0
    3.6799   -1.7954   -0.1914 N   0  3  0  0  0  0  0  0  0  0  0  0
    4.8957   -2.5168    0.2487 C   0  0  0  0  0  0  0  0  0  0  0  0
    6.1785   -1.7793   -0.1888 C   0  0  0  0  0  0  0  0  0  0  0  0
    6.1602   -0.3618    0.2384 N   0  3  0  0  0  0  0  0  0  0  0  0
    4.9445    0.3596   -0.2019 C   0  0  0  0  0  0  0  0  0  0  0  0
    2.7832    0.1169   -0.1804 H   0  0  0  0  0  0  0  0  0  0  0  0
    3.5562   -0.3315    1.3205 H   0  0  0  0  0  0  0  0  0  0  0  0
    2.8688   -2.2610    0.1826 H   0  0  0  0  0  0  0  0  0  0  0  0
    4.8772   -2.6212    1.3345 H   0  0  0  0  0  0  0  0  0  0  0  0
    4.8864   -3.5287   -0.1580 H   0  0  0  0  0  0  0  0  0  0  0  0
    7.0570   -2.2741    0.2271 H   0  0  0  0  0  0  0  0  0  0  0  0
    6.2838   -1.8254   -1.2737 H   0  0  0  0  0  0  0  0  0  0  0  0
    6.2314   -0.3145    1.2423 H   0  0  0  0  0  0  0  0  0  0  0  0
    4.9631    0.4639   -1.2877 H   0  0  0  0  0  0  0  0  0  0  0  0
    4.9537    1.3715    0.2047 H   0  0  0  0  0  0  0  0  0  0  0  0
    3.6084   -1.8428   -1.1952 H   0  0  0  0  0  0  0  0  0  0  0  0
    6.9713    0.1039   -0.1353 H   0  0  0  0  0  0  0  0  0  0  0  0
  1  2  1  0  0  0  0
  1  6  1  0  0  0  0
  1  7  1  0  0  0  0
  1  8  1  0  0  0  0
  2  3  1  0  0  0  0
  2  9  1  0  0  0  0
  2 17  1  0  0  0  0
  3  4  1  0  0  0  0
  3 10  1  0  0  0  0
  3 11  1  0  0  0  0
  4  5  1  0  0  0  0
  4 12  1  0  0  0  0
  4 13  1  0  0  0  0
  5  6  1  0  0  0  0
  5 14  1  0  0  0  0
  5 18  1  0  0  0  0
  6 15  1  0  0  0  0
  6 16  1  0  0  0  0
M  CHG  2   2   1   5   1
M  END
>  <s_m_entry_id>
6445

>  <s_m_entry_name>
Schrodinger_fragment_68

>  <s_m_Source_Path>
/aloy/home/agimeno/Documents/Starting_Project/Part1_SMILES-to-signatures/1.2/Databases/Compounds/Fragment_library/Schrodinger

>  <s_m_Source_File>
schrodinger_fragment_collection_epik.maegz

>  <i_m_Source_File_Index>
76

>  <i_m_number_of_atoms>
16

>  <r_m_molecular_weight>
86.1377

>  <s_m_molecular_formula>
C4H10N2

>  <r_epik_Ionization_Penalty>
7.0136

>  <r_epik_Ionization_Penalty_Charging>
7.0136

>  <r_epik_Ionization_Penalty_Neutral>
0.0000

>  <r_epik_State_Penalty>
1.7534

>  <i_epik_Tot_Q>
2

>  <r_epik_Metal_State_Penalty>
1.7534

>  <b_epik_Metal_Only>
0

>  <s_canvas_Unique_SMILES_Stereo>
C1C[NH2+]CC[NH2+]1

>  <s_m_subgroup_title>
schrodinger_fragment_collection_epik

>  <s_m_subgroupid>
schrodinger_fragment_collection_epik

>  <b_m_subgroup_collapsed>
0

$$$$
Schrodinger_fragment_92
 OpenBabel04062209313D
Schrodinger Suite 2020-2.
  7  7  0  0  1  0  0  0  0  0999 V2000
    1.8766    2.1629    0.0231 C   0  0  0  0  0  0  0  0  0  0  0  0
    0.4600    2.1797    0.0176 C   0  0  0  0  0  0  0  0  0  0  0  0
   -0.0000    0.9512    0.0228 N   0  0  0  0  0  0  0  0  0  0  0  0
    1.1441    0.1380    0.0318 O   0  0  0  0  0  0  0  0  0  0  0  0
    2.3072    0.9238    0.0319 N   0  0  0  0  0  0  0  0  0  0  0  0
    2.5631    2.9966    0.0211 H   0  0  0  0  0  0  0  0  0  0  0  0
   -0.2064    3.0295    0.0101 H   0  0  0  0  0  0  0  0  0  0  0  0
  1  2  1  0  0  0  0
  1  5  2  0  0  0  0
  1  6  1  0  0  0  0
  2  3  2  0  0  0  0
  2  7  1  0  0  0  0
  3  4  1  0  0  0  0
  4  5  1  0  0  0  0
M  END
>  <s_m_entry_id>
6483

>  <s_m_entry_name>
Schrodinger_fragment_104

>  <s_m_Source_Path>
/aloy/home/agimeno/Documents/Starting_Project/Part1_SMILES-to-signatures/1.2/Databases/Compounds/Fragment_library/Schrodinger

>  <s_m_Source_File>
schrodinger_fragment_collection_epik.maegz

>  <i_m_Source_File_Index>
114

>  <i_m_number_of_atoms>
7

>  <r_m_molecular_weight>
70.05104

>  <s_m_molecular_formula>
C2H2N2O1

>  <r_epik_Ionization_Penalty>
0.0000

>  <r_epik_Ionization_Penalty_Charging>
0.0000

>  <r_epik_Ionization_Penalty_Neutral>
0.0000

>  <r_epik_State_Penalty>
0.0000

>  <i_epik_Tot_Q>
0

>  <r_epik_Metal_State_Penalty>
0.0000

>  <b_epik_Metal_Only>
0

>  <s_canvas_Unique_SMILES_Stereo>
c1cnon1

>  <s_m_subgroup_title>
schrodinger_fragment_collection_epik

>  <s_m_subgroupid>
schrodinger_fragment_collection_epik

>  <b_m_subgroup_collapsed>
0

$$$$
Schrodinger_fragment_67
 OpenBabel04062209313D
Schrodinger Suite 2020-2.
 20 20  0  0  1  0  0  0  0  0999 V2000
    6.5504   -8.4742   -0.1911 C   0  0  0  0  0  0  0  0  0  0  0  0
    5.3424   -7.7612    0.2717 N   0  3  0  0  0  0  0  0  0  0  0  0
    5.3282   -6.3578   -0.1886 C   0  0  0  0  0  0  0  0  0  0  0  0
    6.6263   -5.6380    0.2375 C   0  0  0  0  0  0  0  0  0  0  0  0
    7.7965   -6.3434   -0.3030 N   0  0  0  0  0  0  0  0  0  0  0  0
    7.8230   -7.7105    0.2352 C   0  0  0  0  0  0  0  0  0  0  0  0
    9.0158   -5.6398    0.0856 C   0  0  0  0  0  0  0  0  0  0  0  0
    6.5576   -9.4820    0.2256 H   0  0  0  0  0  0  0  0  0  0  0  0
    6.5191   -8.5842   -1.2761 H   0  0  0  0  0  0  0  0  0  0  0  0
    4.5222   -8.2345   -0.0685 H   0  0  0  0  0  0  0  0  0  0  0  0
    5.2162   -6.3280   -1.2734 H   0  0  0  0  0  0  0  0  0  0  0  0
    4.4594   -5.8484    0.2298 H   0  0  0  0  0  0  0  0  0  0  0  0
    6.6067   -4.6130   -0.1375 H   0  0  0  0  0  0  0  0  0  0  0  0
    6.6823   -5.5707    1.3262 H   0  0  0  0  0  0  0  0  0  0  0  0
    7.9102   -7.6974    1.3238 H   0  0  0  0  0  0  0  0  0  0  0  0
    8.7007   -8.2392   -0.1414 H   0  0  0  0  0  0  0  0  0  0  0  0
    9.8991   -6.1442   -0.3101 H   0  0  0  0  0  0  0  0  0  0  0  0
    9.1228   -5.5793    1.1705 H   0  0  0  0  0  0  0  0  0  0  0  0
    9.0201   -4.6219   -0.3084 H   0  0  0  0  0  0  0  0  0  0  0  0
    5.3161   -7.7776    1.2771 H   0  0  0  0  0  0  0  0  0  0  0  0
  1  2  1  0  0  0  0
  1  6  1  0  0  0  0
  1  8  1  0  0  0  0
  1  9  1  0  0  0  0
  2  3  1  0  0  0  0
  2 10  1  0  0  0  0
  2 20  1  0  0  0  0
  3  4  1  0  0  0  0
  3 11  1  0  0  0  0
  3 12  1  0  0  0  0
  4  5  1  0  0  0  0
  4 13  1  0  0  0  0
  4 14  1  0  0  0  0
  5  6  1  0  0  0  0
  5  7  1  0  0  0  0
  6 15  1  0  0  0  0
  6 16  1  0  0  0  0
  7 17  1  0  0  0  0
  7 18  1  0  0  0  0
  7 19  1  0  0  0  0
M  CHG  1   2   1
M  END
>  <s_m_entry_id>
6446

>  <s_m_entry_name>
Schrodinger_fragment_71

>  <s_m_Source_Path>
/aloy/home/agimeno/Documents/Starting_Project/Part1_SMILES-to-signatures/1.2/Databases/Compounds/Fragment_library/Schrodinger

>  <s_m_Source_File>
schrodinger_fragment_collection_epik.maegz

>  <i_m_Source_File_Index>
77

>  <i_m_number_of_atoms>
19

>  <r_m_molecular_weight>
100.16479

>  <s_m_molecular_formula>
C5H12N2

>  <r_epik_Ionization_Penalty>
0.0231

>  <r_epik_Ionization_Penalty_Charging>
0.0204

>  <r_epik_Ionization_Penalty_Neutral>
0.0027

>  <r_epik_State_Penalty>
0.0970

>  <i_epik_Tot_Q>
1

>  <r_epik_Metal_State_Penalty>
0.0970

>  <b_epik_Metal_Only>
0

>  <s_canvas_Unique_SMILES_Stereo>
CN1CC[NH2+]CC1

>  <s_m_subgroup_title>
schrodinger_fragment_collection_epik

>  <s_m_subgroupid>
schrodinger_fragment_collection_epik

>  <b_m_subgroup_collapsed>
0

$$$$
Schrodinger_fragment_213_a
 OpenBabel04062209313D
Schrodinger Suite 2020-2.
 11 11  0  0  1  0  0  0  0  0999 V2000
    1.2522    2.1101    0.0185 N   0  5  0  0  0  0  0  0  0  0  0  0
    1.2460    0.7481    0.0222 C   0  0  0  0  0  0  0  0  0  0  0  0
    2.4194    0.0950    0.0270 N   0  0  0  0  0  0  0  0  0  0  0  0
    3.6414    0.7778    0.0283 C   0  0  0  0  0  0  0  0  0  0  0  0
    3.6748    2.1259    0.0247 C   0  0  0  0  0  0  0  0  0  0  0  0
    2.4032    2.8404    0.0194 C   0  0  0  0  0  0  0  0  0  0  0  0
    2.3868    4.0738    0.0160 O   0  0  0  0  0  0  0  0  0  0  0  0
    0.2170    0.0779    0.0214 O   0  0  0  0  0  0  0  0  0  0  0  0
    2.4354   -0.9188    0.0298 H   0  0  0  0  0  0  0  0  0  0  0  0
    4.5170    0.1448    0.0323 H   0  0  0  0  0  0  0  0  0  0  0  0
    4.6143    2.6609    0.0256 H   0  0  0  0  0  0  0  0  0  0  0  0
  1  2  1  0  0  0  0
  1  6  1  0  0  0  0
  2  3  1  0  0  0  0
  2  8  2  0  0  0  0
  3  4  1  0  0  0  0
  3  9  1  0  0  0  0
  4  5  2  0  0  0  0
  4 10  1  0  0  0  0
  5  6  1  0  0  0  0
  5 11  1  0  0  0  0
  6  7  2  0  0  0  0
M  CHG  1   1  -1
M  END
>  <s_m_entry_id>
6641

>  <s_m_entry_name>
Schrodinger_fragment_270

>  <s_m_Source_Path>
/aloy/home/agimeno/Documents/Starting_Project/Part1_SMILES-to-signatures/1.2/Databases/Compounds/Fragment_library/Schrodinger

>  <s_m_Source_File>
schrodinger_fragment_collection_epik.maegz

>  <i_m_Source_File_Index>
272

>  <i_m_number_of_atoms>
12

>  <r_m_molecular_weight>
112.08868

>  <s_m_molecular_formula>
C4H4N2O2

>  <r_epik_Ionization_Penalty>
3.3445

>  <r_epik_Ionization_Penalty_Charging>
0.0000

>  <r_epik_Ionization_Penalty_Neutral>
3.3445

>  <r_epik_State_Penalty>
3.3424

>  <i_epik_Tot_Q>
-1

>  <r_epik_Metal_State_Penalty>
0.5249

>  <b_epik_Metal_Only>
1

>  <s_canvas_Unique_SMILES_Stereo>
O=c1cc[nH]c([n-]1)=O

>  <s_m_subgroup_title>
schrodinger_fragment_collection_epik

>  <s_m_subgroupid>
schrodinger_fragment_collection_epik

>  <b_m_subgroup_collapsed>
0

$$$$
Schrodinger_fragment_398
 OpenBabel04062209313D
Schrodinger Suite 2020-2.
 28 29  0  0  1  0  0  0  0  0999 V2000
    2.4653   -2.2781   -0.1889 C   0  0  2  0  0  0  0  0  0  0  0  0
    3.7275   -2.9626    0.4093 C   0  0  0  0  0  0  0  0  0  0  0  0
    4.9542   -2.1932    0.2193 N   0  0  0  0  0  0  0  0  0  0  0  0
    4.9867   -0.8705    0.0393 C   0  0  0  0  0  0  0  0  0  0  0  0
    3.6494   -0.1212   -0.0838 C   0  0  0  0  0  0  0  0  0  0  0  0
    1.2537   -0.1382   -0.1246 C   0  0  0  0  0  0  0  0  0  0  0  0
    0.0009   -0.8644    0.3624 C   0  0  0  0  0  0  0  0  0  0  0  0
   -0.0210   -2.2852   -0.2024 C   0  0  0  0  0  0  0  0  0  0  0  0
    6.0504   -0.2613   -0.0529 O   0  0  0  0  0  0  0  0  0  0  0  0
    1.1710   -4.4121   -0.3278 C   0  0  0  0  0  0  0  0  0  0  0  0
    2.5458   -2.2581   -1.2789 H   0  0  0  0  0  0  0  0  0  0  0  0
    3.5977   -3.1312    1.4793 H   0  0  0  0  0  0  0  0  0  0  0  0
    3.8915   -3.9391   -0.0457 H   0  0  0  0  0  0  0  0  0  0  0  0
    5.8326   -2.6898    0.2798 H   0  0  0  0  0  0  0  0  0  0  0  0
    3.7087    0.7966    0.5034 H   0  0  0  0  0  0  0  0  0  0  0  0
    3.5703    0.1846   -1.1290 H   0  0  0  0  0  0  0  0  0  0  0  0
    1.2329   -0.0358   -1.2122 H   0  0  0  0  0  0  0  0  0  0  0  0
    1.2711    0.8719    0.2894 H   0  0  0  0  0  0  0  0  0  0  0  0
   -0.0267   -0.8850    1.4529 H   0  0  0  0  0  0  0  0  0  0  0  0
   -0.8907   -0.3244    0.0416 H   0  0  0  0  0  0  0  0  0  0  0  0
   -0.8987   -2.8128    0.1733 H   0  0  0  0  0  0  0  0  0  0  0  0
   -0.1132   -2.2535   -1.2894 H   0  0  0  0  0  0  0  0  0  0  0  0
    0.2210   -4.8855   -0.0781 H   0  0  0  0  0  0  0  0  0  0  0  0
    1.9481   -5.0314    0.1179 H   0  0  0  0  0  0  0  0  0  0  0  0
    1.2844   -4.4462   -1.4119 H   0  0  0  0  0  0  0  0  0  0  0  0
    2.4349   -0.8864    0.3132 N   0  0  1  0  0  0  0  0  0  0  0  0
    1.2138   -3.0161    0.1742 N   0  3  1  0  0  0  0  0  0  0  0  0
    1.2032   -3.0811    1.1809 H   0  0  0  0  0  0  0  0  0  0  0  0
  1  2  1  0  0  0  0
  1 11  1  0  0  0  0
  1 26  1  1  0  0  0
  2  3  1  0  0  0  0
  2 12  1  0  0  0  0
  2 13  1  0  0  0  0
  3  4  1  0  0  0  0
  3 14  1  0  0  0  0
  4  5  1  0  0  0  0
  4  9  2  0  0  0  0
  5 15  1  0  0  0  0
  5 16  1  0  0  0  0
  6  7  1  0  0  0  0
  6 17  1  0  0  0  0
  6 18  1  0  0  0  0
  7  8  1  0  0  0  0
  7 19  1  0  0  0  0
  7 20  1  0  0  0  0
  8 21  1  0  0  0  0
  8 22  1  0  0  0  0
  8 27  1  0  0  0  0
 10 23  1  0  0  0  0
 10 24  1  0  0  0  0
 10 25  1  0  0  0  0
 10 27  1  0  0  0  0
 26  6  1  6  0  0  0
 26  5  1  0  0  0  0
 27  1  1  6  0  0  0
 27 28  1  0  0  0  0
M  CHG  1  27   1
M  END
>  <s_m_entry_id>
6958

>  <s_m_entry_name>
Schrodinger_fragment_492

>  <s_m_Source_Path>
/aloy/home/agimeno/Documents/Starting_Project/Part1_SMILES-to-signatures/1.2/Databases/Compounds/Fragment_library/Schrodinger

>  <s_m_Source_File>
schrodinger_fragment_collection_epik.maegz

>  <i_m_Source_File_Index>
589

>  <i_m_number_of_atoms>
29

>  <r_m_molecular_weight>
171.24419

>  <s_m_molecular_formula>
C8H17N3O1

>  <r_epik_Ionization_Penalty>
0.0059

>  <r_epik_Ionization_Penalty_Charging>
0.0043

>  <r_epik_Ionization_Penalty_Neutral>
0.0016

>  <r_epik_State_Penalty>
0.1395

>  <i_epik_Tot_Q>
1

>  <r_epik_Metal_State_Penalty>
0.1970

>  <b_epik_Metal_Only>
0

>  <s_canvas_Unique_SMILES_Stereo>
C[N@@H+]1CCCN([C@H]12)CC(=O)NC2

>  <s_m_subgroup_title>
schrodinger_fragment_collection_epik

>  <s_m_subgroupid>
schrodinger_fragment_collection_epik

>  <b_m_subgroup_collapsed>
0

$$$$
Schrodinger_fragment_370
 OpenBabel04062209313D
Schrodinger Suite 2020-2.
 24 25  0  0  1  0  0  0  0  0999 V2000
    3.8279   -2.1814    0.0339 C   0  0  0  0  0  0  0  0  0  0  0  0
    3.8291   -3.6026    0.0338 C   0  0  0  0  0  0  0  0  0  0  0  0
    5.0679   -4.2934    0.0652 C   0  0  0  0  0  0  0  0  0  0  0  0
    6.2853   -3.5916    0.0961 C   0  0  0  0  0  0  0  0  0  0  0  0
    6.2842   -2.1884    0.0962 C   0  0  0  0  0  0  0  0  0  0  0  0
    5.0657   -1.4886    0.0653 C   0  0  0  0  0  0  0  0  0  0  0  0
    2.5846   -1.4670    0.0024 N   0  0  0  0  0  0  0  0  0  0  0  0
    1.3878   -2.1095   -0.0280 C   0  0  0  0  0  0  0  0  0  0  0  0
    1.3891   -3.6785   -0.0281 C   0  0  0  0  0  0  0  0  0  0  0  0
    2.5869   -4.3191    0.0022 N   0  0  0  0  0  0  0  0  0  0  0  0
    0.2936   -1.5227   -0.0558 O   0  0  0  0  0  0  0  0  0  0  0  0
    0.2958   -4.2670   -0.0559 O   0  0  0  0  0  0  0  0  0  0  0  0
    2.6085    0.0066    0.0030 C   0  0  0  0  0  0  0  0  0  0  0  0
    2.6132   -5.7925    0.0028 C   0  0  0  0  0  0  0  0  0  0  0  0
    5.1189   -5.3723    0.0664 H   0  0  0  0  0  0  0  0  0  0  0  0
    7.2217   -4.1323    0.1198 H   0  0  0  0  0  0  0  0  0  0  0  0
    7.2196   -1.6462    0.1199 H   0  0  0  0  0  0  0  0  0  0  0  0
    5.1148   -0.4096    0.0666 H   0  0  0  0  0  0  0  0  0  0  0  0
    1.6267    0.4804   -0.0218 H   0  0  0  0  0  0  0  0  0  0  0  0
    3.1501    0.3758   -0.8683 H   0  0  0  0  0  0  0  0  0  0  0  0
    3.1052    0.3757    0.9008 H   0  0  0  0  0  0  0  0  0  0  0  0
    1.6321   -6.2680   -0.0221 H   0  0  0  0  0  0  0  0  0  0  0  0
    3.1105   -6.1609    0.9005 H   0  0  0  0  0  0  0  0  0  0  0  0
    3.1554   -6.1608   -0.8685 H   0  0  0  0  0  0  0  0  0  0  0  0
  1  2  2  0  0  0  0
  1  6  1  0  0  0  0
  1  7  1  0  0  0  0
  2  3  1  0  0  0  0
  2 10  1  0  0  0  0
  3  4  2  0  0  0  0
  3 15  1  0  0  0  0
  4  5  1  0  0  0  0
  4 16  1  0  0  0  0
  5  6  2  0  0  0  0
  5 17  1  0  0  0  0
  6 18  1  0  0  0  0
  7  8  1  0  0  0  0
  7 13  1  0  0  0  0
  8  9  1  0  0  0  0
  8 11  2  0  0  0  0
  9 10  1  0  0  0  0
  9 12  2  0  0  0  0
 10 14  1  0  0  0  0
 13 19  1  0  0  0  0
 13 20  1  0  0  0  0
 13 21  1  0  0  0  0
 14 22  1  0  0  0  0
 14 23  1  0  0  0  0
 14 24  1  0  0  0  0
M  END
>  <s_m_entry_id>
6901

>  <s_m_entry_name>
Schrodinger_fragment_461

>  <s_m_Source_Path>
/aloy/home/agimeno/Documents/Starting_Project/Part1_SMILES-to-signatures/1.2/Databases/Compounds/Fragment_library/Schrodinger

>  <s_m_Source_File>
schrodinger_fragment_collection_epik.maegz

>  <i_m_Source_File_Index>
532

>  <i_m_number_of_atoms>
24

>  <r_m_molecular_weight>
190.2034

>  <s_m_molecular_formula>
C10H10N2O2

>  <r_epik_Ionization_Penalty>
0.0000

>  <r_epik_Ionization_Penalty_Charging>
0.0000

>  <r_epik_Ionization_Penalty_Neutral>
0.0000

>  <r_epik_State_Penalty>
0.0000

>  <i_epik_Tot_Q>
0

>  <r_epik_Metal_State_Penalty>
0.0000

>  <b_epik_Metal_Only>
0

>  <s_canvas_Unique_SMILES_Stereo>
Cn1c(=O)c(=O)n(C)c(c12)cccc2

>  <s_m_subgroup_title>
schrodinger_fragment_collection_epik

>  <s_m_subgroupid>
schrodinger_fragment_collection_epik

>  <b_m_subgroup_collapsed>
0

$$$$
Schrodinger_fragment_293
 OpenBabel04062209313D
Schrodinger Suite 2020-2.
 30 31  0  0  1  0  0  0  0  0999 V2000
    0.8839   -2.5222    1.0530 C   0  0  0  0  0  0  0  0  0  0  0  0
    1.3107   -3.2367    0.0010 N   0  0  0  0  0  0  0  0  0  0  0  0
    1.9313   -1.9073    1.6071 N   0  0  0  0  0  0  0  0  0  0  0  0
    3.1824   -2.1896    0.9229 C   0  0  1  0  0  0  0  0  0  0  0  0
    2.6318   -3.1149   -0.1650 C   0  0  0  0  0  0  0  0  0  0  0  0
    3.8149   -0.8958    0.3579 C   0  0  0  0  0  0  0  0  0  0  0  0
    5.2145   -1.1310   -0.2506 C   0  0  0  0  0  0  0  0  0  0  0  0
    5.5800   -3.0785    1.2214 C   0  0  0  0  0  0  0  0  0  0  0  0
    4.1892   -2.8906    1.8654 C   0  0  0  0  0  0  0  0  0  0  0  0
    3.3205   -3.6475   -1.0402 O   0  0  0  0  0  0  0  0  0  0  0  0
   -0.2784   -2.4373    1.4543 O   0  0  0  0  0  0  0  0  0  0  0  0
    0.4284   -4.0419   -0.8460 C   0  0  0  0  0  0  0  0  0  0  0  0
    7.4994   -1.9440    0.1761 C   0  0  0  0  0  0  0  0  0  0  0  0
    1.8567   -1.3095    2.4174 H   0  0  0  0  0  0  0  0  0  0  0  0
    3.1665   -0.4531   -0.4003 H   0  0  0  0  0  0  0  0  0  0  0  0
    3.8921   -0.1512    1.1512 H   0  0  0  0  0  0  0  0  0  0  0  0
    5.1433   -1.7291   -1.1600 H   0  0  0  0  0  0  0  0  0  0  0  0
    5.6384   -0.1719   -0.5519 H   0  0  0  0  0  0  0  0  0  0  0  0
    6.2626   -3.4977    1.9621 H   0  0  0  0  0  0  0  0  0  0  0  0
    5.5330   -3.8044    0.4086 H   0  0  0  0  0  0  0  0  0  0  0  0
    4.2968   -2.3086    2.7816 H   0  0  0  0  0  0  0  0  0  0  0  0
    3.8065   -3.8639    2.1773 H   0  0  0  0  0  0  0  0  0  0  0  0
    0.9646   -4.5370   -1.6570 H   0  0  0  0  0  0  0  0  0  0  0  0
   -0.3441   -3.4152   -1.2939 H   0  0  0  0  0  0  0  0  0  0  0  0
   -0.0647   -4.8142   -0.2541 H   0  0  0  0  0  0  0  0  0  0  0  0
    8.1690   -2.3652    0.9265 H   0  0  0  0  0  0  0  0  0  0  0  0
    7.9088   -0.9782   -0.1218 H   0  0  0  0  0  0  0  0  0  0  0  0
    7.5129   -2.5999   -0.6951 H   0  0  0  0  0  0  0  0  0  0  0  0
    6.1288   -1.7941    0.7147 N   0  3  1  0  0  0  0  0  0  0  0  0
    6.2174   -1.1770    1.5092 H   0  0  0  0  0  0  0  0  0  0  0  0
  1  2  1  0  0  0  0
  1  3  1  0  0  0  0
  1 11  2  0  0  0  0
  2  5  1  0  0  0  0
  2 12  1  0  0  0  0
  3  4  1  0  0  0  0
  3 14  1  0  0  0  0
  4  5  1  6  0  0  0
  4  6  1  0  0  0  0
  4  9  1  0  0  0  0
  5 10  2  0  0  0  0
  6  7  1  0  0  0  0
  6 15  1  0  0  0  0
  6 16  1  0  0  0  0
  7 17  1  0  0  0  0
  7 18  1  0  0  0  0
  7 29  1  0  0  0  0
  8  9  1  0  0  0  0
  8 19  1  0  0  0  0
  8 20  1  0  0  0  0
  8 29  1  0  0  0  0
  9 21  1  0  0  0  0
  9 22  1  0  0  0  0
 12 23  1  0  0  0  0
 12 24  1  0  0  0  0
 12 25  1  0  0  0  0
 13 26  1  0  0  0  0
 13 27  1  0  0  0  0
 13 28  1  0  0  0  0
 13 29  1  0  0  0  0
 29 30  1  1  0  0  0
M  CHG  1  29   1
M  END
>  <s_m_entry_id>
6755

>  <s_m_entry_name>
Schrodinger_fragment_354

>  <s_m_Source_Path>
/aloy/home/agimeno/Documents/Starting_Project/Part1_SMILES-to-signatures/1.2/Databases/Compounds/Fragment_library/Schrodinger

>  <s_m_Source_File>
schrodinger_fragment_collection_epik.maegz

>  <i_m_Source_File_Index>
386

>  <i_m_number_of_atoms>
30

>  <r_m_molecular_weight>
198.24677

>  <s_m_molecular_formula>
C9H16N3O2

>  <r_epik_Ionization_Penalty>
0.0340

>  <r_epik_Ionization_Penalty_Charging>
0.0005

>  <r_epik_Ionization_Penalty_Neutral>
0.0335

>  <r_epik_State_Penalty>
0.0335

>  <i_epik_Tot_Q>
1

>  <r_epik_Metal_State_Penalty>
2.4171

>  <b_epik_Metal_Only>
0

>  <s_canvas_Unique_SMILES_Stereo>
N1C(=O)N(C)C(=O)C12CC[NH+](C)CC2

>  <s_m_subgroup_title>
schrodinger_fragment_collection_epik

>  <s_m_subgroupid>
schrodinger_fragment_collection_epik

>  <b_m_subgroup_collapsed>
0

$$$$
Schrodinger_fragment_244
 OpenBabel04062209313D
Schrodinger Suite 2020-2.
 26 27  0  0  1  0  0  0  0  0999 V2000
    2.2347   -0.9688    0.2215 C   0  0  1  0  0  0  0  0  0  0  0  0
    2.2337   -2.3749   -0.3058 C   0  0  1  0  0  0  0  0  0  0  0  0
    3.5885   -2.7942   -0.0146 N   0  0  0  0  0  0  0  0  0  0  0  0
    4.3877   -1.7159   -0.1635 C   0  0  0  0  0  0  0  0  0  0  0  0
    3.5490   -0.4348   -0.3399 C   0  0  0  0  0  0  0  0  0  0  0  0
    0.0282   -1.6838    0.1077 C   0  0  0  0  0  0  0  0  0  0  0  0
    0.9729   -2.9022    0.3571 C   0  0  0  0  0  0  0  0  0  0  0  0
    5.6215   -1.7201   -0.1446 O   0  0  0  0  0  0  0  0  0  0  0  0
    3.9868   -4.1879    0.1298 C   0  0  0  0  0  0  0  0  0  0  0  0
    0.4687    0.7475    0.5262 C   0  0  0  0  0  0  0  0  0  0  0  0
    2.3012   -0.9672    1.3150 H   0  0  0  0  0  0  0  0  0  0  0  0
    2.1036   -2.3970   -1.3926 H   0  0  0  0  0  0  0  0  0  0  0  0
    3.4845   -0.1695   -1.3951 H   0  0  0  0  0  0  0  0  0  0  0  0
    3.9434    0.4051    0.2315 H   0  0  0  0  0  0  0  0  0  0  0  0
   -0.6099   -1.8535   -0.7604 H   0  0  0  0  0  0  0  0  0  0  0  0
   -0.6283   -1.5318    0.9658 H   0  0  0  0  0  0  0  0  0  0  0  0
    0.6044   -3.8246   -0.0925 H   0  0  0  0  0  0  0  0  0  0  0  0
    1.1243   -3.0722    1.4243 H   0  0  0  0  0  0  0  0  0  0  0  0
    4.7546   -4.2911    0.8976 H   0  0  0  0  0  0  0  0  0  0  0  0
    4.3902   -4.5667   -0.8097 H   0  0  0  0  0  0  0  0  0  0  0  0
    3.1396   -4.8122    0.4142 H   0  0  0  0  0  0  0  0  0  0  0  0
   -0.5314    1.0365    0.2028 H   0  0  0  0  0  0  0  0  0  0  0  0
    1.1460    1.5687    0.2907 H   0  0  0  0  0  0  0  0  0  0  0  0
    0.4518    0.6222    1.6093 H   0  0  0  0  0  0  0  0  0  0  0  0
    0.8973   -0.4915   -0.1571 N   0  3  1  0  0  0  0  0  0  0  0  0
    0.8832   -0.3226   -1.1523 H   0  0  0  0  0  0  0  0  0  0  0  0
  1  2  1  6  0  0  0
  1  5  1  0  0  0  0
  1 11  1  0  0  0  0
  2  3  1  0  0  0  0
  2  7  1  0  0  0  0
  2 12  1  6  0  0  0
  3  4  1  0  0  0  0
  3  9  1  0  0  0  0
  4  5  1  0  0  0  0
  4  8  2  0  0  0  0
  5 13  1  0  0  0  0
  5 14  1  0  0  0  0
  6  7  1  0  0  0  0
  6 15  1  0  0  0  0
  6 16  1  0  0  0  0
  6 25  1  0  0  0  0
  7 17  1  0  0  0  0
  7 18  1  0  0  0  0
  9 19  1  0  0  0  0
  9 20  1  0  0  0  0
  9 21  1  0  0  0  0
 10 22  1  0  0  0  0
 10 23  1  0  0  0  0
 10 24  1  0  0  0  0
 10 25  1  0  0  0  0
 25  1  1  1  0  0  0
 25 26  1  0  0  0  0
M  CHG  1  25   1
M  END
>  <s_m_entry_id>
6683

>  <s_m_entry_name>
Schrodinger_fragment_305

>  <s_m_Source_Path>
/aloy/home/agimeno/Documents/Starting_Project/Part1_SMILES-to-signatures/1.2/Databases/Compounds/Fragment_library/Schrodinger

>  <s_m_Source_File>
schrodinger_fragment_collection_epik.maegz

>  <i_m_Source_File_Index>
314

>  <i_m_number_of_atoms>
26

>  <r_m_molecular_weight>
155.22155

>  <s_m_molecular_formula>
C8H15N2O1

>  <r_epik_Ionization_Penalty>
0.0024

>  <r_epik_Ionization_Penalty_Charging>
0.0024

>  <r_epik_Ionization_Penalty_Neutral>
0.0000

>  <r_epik_State_Penalty>
0.0000

>  <i_epik_Tot_Q>
1

>  <r_epik_Metal_State_Penalty>
0.0000

>  <b_epik_Metal_Only>
0

>  <s_canvas_Unique_SMILES_Stereo>
CN1C(=O)C[C@H]([C@@H]12)[N@H+](C)CC2

>  <s_m_subgroup_title>
schrodinger_fragment_collection_epik

>  <s_m_subgroupid>
schrodinger_fragment_collection_epik

>  <b_m_subgroup_collapsed>
0

$$$$
Schrodinger_fragment_50_a
 OpenBabel04062209313D
Schrodinger Suite 2020-2.
 15 15  0  0  1  0  0  0  0  0999 V2000
    0.2515   -2.4500    0.1741 C   0  0  0  0  0  0  0  0  0  0  0  0
    0.2233   -3.8525    0.0677 C   0  0  0  0  0  0  0  0  0  0  0  0
    1.4238   -4.5631   -0.1136 C   0  0  0  0  0  0  0  0  0  0  0  0
    2.6493   -3.8708   -0.1896 C   0  0  0  0  0  0  0  0  0  0  0  0
    2.7000   -2.4583   -0.0926 C   0  0  0  0  0  0  0  0  0  0  0  0
    1.4788   -1.7610    0.0966 C   0  0  0  0  0  0  0  0  0  0  0  0
    4.0177   -1.7519   -0.1600 C   0  0  0  0  0  0  0  0  0  0  0  0
    3.9158   -0.6708   -0.7459 O   0  5  0  0  0  0  0  0  0  0  0  0
    5.0727   -2.2492    0.3024 N   0  0  0  0  0  0  0  0  0  0  0  0
   -0.6684   -1.8998    0.3176 H   0  0  0  0  0  0  0  0  0  0  0  0
   -0.7177   -4.3826    0.1270 H   0  0  0  0  0  0  0  0  0  0  0  0
    1.4069   -5.6414   -0.1945 H   0  0  0  0  0  0  0  0  0  0  0  0
    3.5617   -4.4327   -0.3325 H   0  0  0  0  0  0  0  0  0  0  0  0
    1.4820   -0.6839    0.1886 H   0  0  0  0  0  0  0  0  0  0  0  0
    4.8866   -3.1576    0.7282 H   0  0  0  0  0  0  0  0  0  0  0  0
  1  2  2  0  0  0  0
  1  6  1  0  0  0  0
  1 10  1  0  0  0  0
  2  3  1  0  0  0  0
  2 11  1  0  0  0  0
  3  4  2  0  0  0  0
  3 12  1  0  0  0  0
  4  5  1  0  0  0  0
  4 13  1  0  0  0  0
  5  6  2  0  0  0  0
  5  7  1  0  0  0  0
  6 14  1  0  0  0  0
  7  8  1  0  0  0  0
  7  9  2  0  0  0  0
  9 15  1  0  0  0  0
M  CHG  1   8  -1
M  END
>  <s_m_entry_id>
6426

>  <s_m_entry_name>
Schrodinger_fragment_51

>  <s_m_Source_Path>
/aloy/home/agimeno/Documents/Starting_Project/Part1_SMILES-to-signatures/1.2/Databases/Compounds/Fragment_library/Schrodinger

>  <s_m_Source_File>
schrodinger_fragment_collection_epik.maegz

>  <i_m_Source_File_Index>
57

>  <i_m_number_of_atoms>
16

>  <r_m_molecular_weight>
121.13994

>  <s_m_molecular_formula>
C7H7N1O1

>  <r_epik_Ionization_Penalty>
5.1910

>  <r_epik_Ionization_Penalty_Charging>
5.1910

>  <r_epik_Ionization_Penalty_Neutral>
0.0000

>  <r_epik_State_Penalty>
5.1909

>  <i_epik_Tot_Q>
-1

>  <r_epik_Metal_State_Penalty>
1.2597

>  <b_epik_Metal_Only>
1

>  <s_canvas_Unique_SMILES_Stereo>
[H]/N=C([O-])\c1ccccc1

>  <s_m_subgroup_title>
schrodinger_fragment_collection_epik

>  <s_m_subgroupid>
schrodinger_fragment_collection_epik

>  <b_m_subgroup_collapsed>
0

$$$$
Schrodinger_fragment_208_a
 OpenBabel04062209313D
Schrodinger Suite 2020-2.
 10 10  0  0  1  0  0  0  0  0999 V2000
    1.2571    2.0955    0.0230 N   0  0  0  0  0  0  0  0  0  0  0  0
    1.3379    0.7865    0.0186 C   0  0  0  0  0  0  0  0  0  0  0  0
    2.4290    0.0589    0.0179 N   0  0  0  0  0  0  0  0  0  0  0  0
    3.6089    0.7186    0.0220 C   0  0  0  0  0  0  0  0  0  0  0  0
    3.6476    2.1156    0.0269 C   0  0  0  0  0  0  0  0  0  0  0  0
    2.4204    2.7841    0.0272 C   0  0  0  0  0  0  0  0  0  0  0  0
    0.1867    0.1240    0.0145 O   0  5  0  0  0  0  0  0  0  0  0  0
    4.5127    0.1274    0.0215 H   0  0  0  0  0  0  0  0  0  0  0  0
    4.5857    2.6554    0.0303 H   0  0  0  0  0  0  0  0  0  0  0  0
    2.3634    3.8625    0.0308 H   0  0  0  0  0  0  0  0  0  0  0  0
  1  2  1  0  0  0  0
  1  6  2  0  0  0  0
  2  3  2  0  0  0  0
  2  7  1  0  0  0  0
  3  4  1  0  0  0  0
  4  5  2  0  0  0  0
  4  8  1  0  0  0  0
  5  6  1  0  0  0  0
  5  9  1  0  0  0  0
  6 10  1  0  0  0  0
M  CHG  1   7  -1
M  END
>  <s_m_entry_id>
6635

>  <s_m_entry_name>
Schrodinger_fragment_265

>  <s_m_Source_Path>
/aloy/home/agimeno/Documents/Starting_Project/Part1_SMILES-to-signatures/1.2/Databases/Compounds/Fragment_library/Schrodinger

>  <s_m_Source_File>
schrodinger_fragment_collection_epik.maegz

>  <i_m_Source_File_Index>
266

>  <i_m_number_of_atoms>
11

>  <r_m_molecular_weight>
96.08928

>  <s_m_molecular_formula>
C4H4N2O1

>  <r_epik_Ionization_Penalty>
5.7035

>  <r_epik_Ionization_Penalty_Charging>
0.0184

>  <r_epik_Ionization_Penalty_Neutral>
5.6851

>  <r_epik_State_Penalty>
2.8376

>  <i_epik_Tot_Q>
-1

>  <r_epik_Metal_State_Penalty>
0.4427

>  <b_epik_Metal_Only>
1

>  <s_canvas_Unique_SMILES_Stereo>
[O-]c1ncccn1

>  <s_m_subgroup_title>
schrodinger_fragment_collection_epik

>  <s_m_subgroupid>
schrodinger_fragment_collection_epik

>  <b_m_subgroup_collapsed>
0

$$$$
Schrodinger_fragment_405
 OpenBabel04062209313D
Schrodinger Suite 2020-2.
 28 29  0  0  1  0  0  0  0  0999 V2000
    2.4223   -2.2874    0.3103 C   0  0  1  0  0  0  0  0  0  0  0  0
    3.7093   -2.9907   -0.1945 C   0  0  0  0  0  0  0  0  0  0  0  0
    4.9298   -2.2430    0.1280 N   0  0  0  0  0  0  0  0  0  0  0  0
    4.9700   -0.9083   -0.0583 C   0  0  0  0  0  0  0  0  0  0  0  0
    3.6581   -0.2346   -0.4666 C   0  0  0  0  0  0  0  0  0  0  0  0
    1.2259   -0.1046   -0.0266 C   0  0  0  0  0  0  0  0  0  0  0  0
    0.0399   -0.8736    0.5737 C   0  0  0  0  0  0  0  0  0  0  0  0
   -0.0091   -2.3382    0.0919 C   0  0  0  0  0  0  0  0  0  0  0  0
    5.9857   -0.2297    0.1192 O   0  0  0  0  0  0  0  0  0  0  0  0
    6.1104   -3.0015    0.5481 C   0  0  0  0  0  0  0  0  0  0  0  0
    2.2821   -2.5651    1.3572 H   0  0  0  0  0  0  0  0  0  0  0  0
    3.7440   -4.0029    0.2103 H   0  0  0  0  0  0  0  0  0  0  0  0
    3.6819   -3.1023   -1.2801 H   0  0  0  0  0  0  0  0  0  0  0  0
    3.7322    0.8395   -0.2944 H   0  0  0  0  0  0  0  0  0  0  0  0
    3.5105   -0.3805   -1.5371 H   0  0  0  0  0  0  0  0  0  0  0  0
    1.1011   -0.0389   -1.1084 H   0  0  0  0  0  0  0  0  0  0  0  0
    1.2511    0.9188    0.3489 H   0  0  0  0  0  0  0  0  0  0  0  0
    0.1122   -0.8526    1.6623 H   0  0  0  0  0  0  0  0  0  0  0  0
   -0.8977   -0.3715    0.3314 H   0  0  0  0  0  0  0  0  0  0  0  0
   -0.3158   -2.9807    0.9195 H   0  0  0  0  0  0  0  0  0  0  0  0
   -0.7687   -2.4573   -0.6829 H   0  0  0  0  0  0  0  0  0  0  0  0
    6.3818   -2.7450    1.5730 H   0  0  0  0  0  0  0  0  0  0  0  0
    6.9646   -2.7760   -0.0925 H   0  0  0  0  0  0  0  0  0  0  0  0
    5.9516   -4.0793    0.5060 H   0  0  0  0  0  0  0  0  0  0  0  0
    2.5060   -0.7883    0.2883 N   0  3  1  0  0  0  0  0  0  0  0  0
    2.7155   -0.5469    1.2471 H   0  0  0  0  0  0  0  0  0  0  0  0
    1.2731   -2.8026   -0.4425 N   0  0  0  0  0  0  0  0  0  0  0  0
    1.3605   -2.5586   -1.4253 H   0  0  0  0  0  0  0  0  0  0  0  0
  1  2  1  0  0  0  0
  1 11  1  0  0  0  0
  1 25  1  6  0  0  0
  1 27  1  0  0  0  0
  2  3  1  0  0  0  0
  2 12  1  0  0  0  0
  2 13  1  0  0  0  0
  3  4  1  0  0  0  0
  3 10  1  0  0  0  0
  4  5  1  0  0  0  0
  4  9  2  0  0  0  0
  5 14  1  0  0  0  0
  5 15  1  0  0  0  0
  5 25  1  0  0  0  0
  6  7  1  0  0  0  0
  6 16  1  0  0  0  0
  6 17  1  0  0  0  0
  6 25  1  0  0  0  0
  7  8  1  0  0  0  0
  7 18  1  0  0  0  0
  7 19  1  0  0  0  0
  8 20  1  0  0  0  0
  8 21  1  0  0  0  0
  8 27  1  0  0  0  0
 10 22  1  0  0  0  0
 10 23  1  0  0  0  0
 10 24  1  0  0  0  0
 25 26  1  1  0  0  0
 27 28  1  0  0  0  0
M  CHG  1  25   1
M  END
>  <s_m_entry_id>
6968

>  <s_m_entry_name>
Schrodinger_fragment_503

>  <s_m_Source_Path>
/aloy/home/agimeno/Documents/Starting_Project/Part1_SMILES-to-signatures/1.2/Databases/Compounds/Fragment_library/Schrodinger

>  <s_m_Source_File>
schrodinger_fragment_collection_epik.maegz

>  <i_m_Source_File_Index>
599

>  <i_m_number_of_atoms>
29

>  <r_m_molecular_weight>
171.24419

>  <s_m_molecular_formula>
C8H17N3O1

>  <r_epik_Ionization_Penalty>
0.0014

>  <r_epik_Ionization_Penalty_Charging>
0.0014

>  <r_epik_Ionization_Penalty_Neutral>
0.0000

>  <r_epik_State_Penalty>
0.0000

>  <i_epik_Tot_Q>
1

>  <r_epik_Metal_State_Penalty>
0.0000

>  <b_epik_Metal_Only>
0

>  <s_canvas_Unique_SMILES_Stereo>
CN(C1)C(=O)C[N@H+]([C@H]12)CCCN2

>  <s_m_subgroup_title>
schrodinger_fragment_collection_epik

>  <s_m_subgroupid>
schrodinger_fragment_collection_epik

>  <b_m_subgroup_collapsed>
0

$$$$
Schrodinger_fragment_23
 OpenBabel04062209313D
Schrodinger Suite 2020-2.
 10  9  0  0  1  0  0  0  0  0999 V2000
    0.0248   -2.0625    0.3101 C   0  0  0  0  0  0  0  0  0  0  0  0
    1.3083   -0.8879   -0.2105 S   0  0  0  0  0  0  0  0  0  0  0  0
    2.6324   -1.8983   -0.5325 N   0  0  0  0  0  0  0  0  0  0  0  0
    0.9046   -0.2801   -1.4871 O   0  0  0  0  0  0  0  0  0  0  0  0
    1.6734   -0.0455    0.9380 O   0  0  0  0  0  0  0  0  0  0  0  0
   -0.8841   -1.5117    0.5454 H   0  0  0  0  0  0  0  0  0  0  0  0
    0.3583   -2.6010    1.1946 H   0  0  0  0  0  0  0  0  0  0  0  0
   -0.1782   -2.7642   -0.4961 H   0  0  0  0  0  0  0  0  0  0  0  0
    3.4115   -1.6771    0.0895 H   0  0  0  0  0  0  0  0  0  0  0  0
    2.9031   -1.8320   -1.5149 H   0  0  0  0  0  0  0  0  0  0  0  0
  1  2  1  0  0  0  0
  1  6  1  0  0  0  0
  1  7  1  0  0  0  0
  1  8  1  0  0  0  0
  2  3  1  0  0  0  0
  2  4  2  0  0  0  0
  2  5  2  0  0  0  0
  3  9  1  0  0  0  0
  3 10  1  0  0  0  0
M  END
>  <s_m_entry_id>
6393

>  <s_m_entry_name>
Schrodinger_fragment_23

>  <s_m_Source_Path>
/aloy/home/agimeno/Documents/Starting_Project/Part1_SMILES-to-signatures/1.2/Databases/Compounds/Fragment_library/Schrodinger

>  <s_m_Source_File>
schrodinger_fragment_collection_epik.maegz

>  <i_m_Source_File_Index>
24

>  <i_m_number_of_atoms>
10

>  <r_m_molecular_weight>
95.1205

>  <s_m_molecular_formula>
C1H5N1O2S1

>  <r_epik_Ionization_Penalty>
0.0002

>  <r_epik_Ionization_Penalty_Charging>
0.0000

>  <r_epik_Ionization_Penalty_Neutral>
0.0002

>  <r_epik_State_Penalty>
0.0000

>  <i_epik_Tot_Q>
0

>  <r_epik_Metal_State_Penalty>
0.0920

>  <b_epik_Metal_Only>
0

>  <s_canvas_Unique_SMILES_Stereo>
CS(=O)(=O)N

>  <s_m_subgroup_title>
schrodinger_fragment_collection_epik

>  <s_m_subgroupid>
schrodinger_fragment_collection_epik

>  <b_m_subgroup_collapsed>
0

$$$$
Schrodinger_fragment_139
 OpenBabel04062209313D
Schrodinger Suite 2020-2.
 18 19  0  0  1  0  0  0  0  0999 V2000
    4.1952   -2.6625    0.0259 C   0  0  0  0  0  0  0  0  0  0  0  0
    4.1821   -4.0706    0.0236 C   0  0  0  0  0  0  0  0  0  0  0  0
    6.5354   -4.1097    0.0264 C   0  0  0  0  0  0  0  0  0  0  0  0
    6.5849   -2.7016    0.0287 C   0  0  0  0  0  0  0  0  0  0  0  0
    5.3910   -1.9398    0.0284 C   0  0  0  0  0  0  0  0  0  0  0  0
    2.8533   -2.2703    0.0248 N   0  3  0  0  0  0  0  0  0  0  0  0
    2.0416   -3.3704    0.0221 C   0  0  0  0  0  0  0  0  0  0  0  0
    2.8504   -4.4744    0.0214 N   0  0  0  0  0  0  0  0  0  0  0  0
    2.5437   -5.9083    0.0187 C   0  0  0  0  0  0  0  0  0  0  0  0
    7.4391   -4.7047    0.0266 H   0  0  0  0  0  0  0  0  0  0  0  0
    7.5500   -2.2100    0.0306 H   0  0  0  0  0  0  0  0  0  0  0  0
    5.4114   -0.8592    0.0302 H   0  0  0  0  0  0  0  0  0  0  0  0
    0.9560   -3.3558    0.0208 H   0  0  0  0  0  0  0  0  0  0  0  0
    1.4625   -6.0535    0.0172 H   0  0  0  0  0  0  0  0  0  0  0  0
    2.9691   -6.3734    0.9096 H   0  0  0  0  0  0  0  0  0  0  0  0
    2.9713   -6.3706   -0.8726 H   0  0  0  0  0  0  0  0  0  0  0  0
    5.3544   -4.7584    0.0239 N   0  0  0  0  0  0  0  0  0  0  0  0
    2.4936   -1.3221    0.0259 H   0  0  0  0  0  0  0  0  0  0  0  0
  1  2  2  0  0  0  0
  1  5  1  0  0  0  0
  1  6  1  0  0  0  0
  2  8  1  0  0  0  0
  2 17  1  0  0  0  0
  3  4  1  0  0  0  0
  3 10  1  0  0  0  0
  3 17  2  0  0  0  0
  4  5  2  0  0  0  0
  4 11  1  0  0  0  0
  5 12  1  0  0  0  0
  6  7  2  0  0  0  0
  6 18  1  0  0  0  0
  7  8  1  0  0  0  0
  7 13  1  0  0  0  0
  8  9  1  0  0  0  0
  9 14  1  0  0  0  0
  9 15  1  0  0  0  0
  9 16  1  0  0  0  0
M  CHG  1   6   1
M  END
>  <s_m_entry_id>
6541

>  <s_m_entry_name>
Schrodinger_fragment_179

>  <s_m_Source_Path>
/aloy/home/agimeno/Documents/Starting_Project/Part1_SMILES-to-signatures/1.2/Databases/Compounds/Fragment_library/Schrodinger

>  <s_m_Source_File>
schrodinger_fragment_collection_epik.maegz

>  <i_m_Source_File_Index>
172

>  <i_m_number_of_atoms>
18

>  <r_m_molecular_weight>
134.16191

>  <s_m_molecular_formula>
C7H8N3

>  <r_epik_Ionization_Penalty>
0.4315

>  <r_epik_Ionization_Penalty_Charging>
0.4315

>  <r_epik_Ionization_Penalty_Neutral>
0.0000

>  <r_epik_State_Penalty>
0.4315

>  <i_epik_Tot_Q>
1

>  <r_epik_Metal_State_Penalty>
0.6645

>  <b_epik_Metal_Only>
0

>  <s_canvas_Unique_SMILES_Stereo>
[nH+]1cn(C)c(c12)nccc2

>  <s_m_subgroup_title>
schrodinger_fragment_collection_epik

>  <s_m_subgroupid>
schrodinger_fragment_collection_epik

>  <b_m_subgroup_collapsed>
0

$$$$
Schrodinger_fragment_393
 OpenBabel04062209313D
Schrodinger Suite 2020-2.
 28 29  0  0  1  0  0  0  0  0999 V2000
    2.4278   -2.3235    0.3438 C   0  0  1  0  0  0  0  0  0  0  0  0
    3.7821   -2.9189   -0.1493 C   0  0  0  0  0  0  0  0  0  0  0  0
    4.9298   -2.1939    0.3861 N   0  0  0  0  0  0  0  0  0  0  0  0
    4.9483   -0.8613    0.4271 C   0  0  0  0  0  0  0  0  0  0  0  0
    3.6912   -0.1508   -0.0919 C   0  0  0  0  0  0  0  0  0  0  0  0
    1.2550   -0.2032   -0.3503 C   0  0  0  0  0  0  0  0  0  0  0  0
    0.0145   -0.8223    0.2919 C   0  0  0  0  0  0  0  0  0  0  0  0
   -0.0655   -2.3365    0.0358 C   0  0  0  0  0  0  0  0  0  0  0  0
    5.9098   -0.2277    0.8580 O   0  0  0  0  0  0  0  0  0  0  0  0
    1.1834   -4.4256   -0.2098 C   0  0  0  0  0  0  0  0  0  0  0  0
    2.3405   -2.5548    1.4077 H   0  0  0  0  0  0  0  0  0  0  0  0
    3.8837   -3.9608    0.1544 H   0  0  0  0  0  0  0  0  0  0  0  0
    3.8367   -2.9003   -1.2391 H   0  0  0  0  0  0  0  0  0  0  0  0
    5.7263   -2.7176    0.7228 H   0  0  0  0  0  0  0  0  0  0  0  0
    3.6738    0.8738    0.2830 H   0  0  0  0  0  0  0  0  0  0  0  0
    3.7813   -0.0853   -1.1776 H   0  0  0  0  0  0  0  0  0  0  0  0
    1.2533   -0.3416   -1.4335 H   0  0  0  0  0  0  0  0  0  0  0  0
    1.2679    0.8725   -0.1657 H   0  0  0  0  0  0  0  0  0  0  0  0
    0.0357   -0.6340    1.3666 H   0  0  0  0  0  0  0  0  0  0  0  0
   -0.8891   -0.3353   -0.0769 H   0  0  0  0  0  0  0  0  0  0  0  0
   -0.4745   -2.8204    0.9241 H   0  0  0  0  0  0  0  0  0  0  0  0
   -0.7697   -2.5364   -0.7729 H   0  0  0  0  0  0  0  0  0  0  0  0
    0.2761   -4.8137   -0.6740 H   0  0  0  0  0  0  0  0  0  0  0  0
    1.1831   -4.7390    0.8348 H   0  0  0  0  0  0  0  0  0  0  0  0
    2.0187   -4.9104   -0.7138 H   0  0  0  0  0  0  0  0  0  0  0  0
    2.4204   -0.8361    0.2631 N   0  0  1  0  0  0  0  0  0  0  0  0
    1.2432   -2.9474   -0.3284 N   0  3  2  0  0  0  0  0  0  0  0  0
    1.3609   -2.7658   -1.3138 H   0  0  0  0  0  0  0  0  0  0  0  0
  1  2  1  0  0  0  0
  1 11  1  0  0  0  0
  1 26  1  6  0  0  0
  2  3  1  0  0  0  0
  2 12  1  0  0  0  0
  2 13  1  0  0  0  0
  3  4  1  0  0  0  0
  3 14  1  0  0  0  0
  4  5  1  0  0  0  0
  4  9  2  0  0  0  0
  5 15  1  0  0  0  0
  5 16  1  0  0  0  0
  6  7  1  0  0  0  0
  6 17  1  0  0  0  0
  6 18  1  0  0  0  0
  7  8  1  0  0  0  0
  7 19  1  0  0  0  0
  7 20  1  0  0  0  0
  8 21  1  0  0  0  0
  8 22  1  0  0  0  0
  8 27  1  0  0  0  0
 10 23  1  0  0  0  0
 10 24  1  0  0  0  0
 10 25  1  0  0  0  0
 10 27  1  0  0  0  0
 26  6  1  6  0  0  0
 26  5  1  0  0  0  0
 27  1  1  1  0  0  0
 27 28  1  0  0  0  0
M  CHG  1  27   1
M  END
>  <s_m_entry_id>
6944

>  <s_m_entry_name>
Schrodinger_fragment_487

>  <s_m_Source_Path>
/aloy/home/agimeno/Documents/Starting_Project/Part1_SMILES-to-signatures/1.2/Databases/Compounds/Fragment_library/Schrodinger

>  <s_m_Source_File>
schrodinger_fragment_collection_epik.maegz

>  <i_m_Source_File_Index>
575

>  <i_m_number_of_atoms>
29

>  <r_m_molecular_weight>
171.24419

>  <s_m_molecular_formula>
C8H17N3O1

>  <r_epik_Ionization_Penalty>
0.0059

>  <r_epik_Ionization_Penalty_Charging>
0.0043

>  <r_epik_Ionization_Penalty_Neutral>
0.0016

>  <r_epik_State_Penalty>
0.1395

>  <i_epik_Tot_Q>
1

>  <r_epik_Metal_State_Penalty>
0.1970

>  <b_epik_Metal_Only>
0

>  <s_canvas_Unique_SMILES_Stereo>
C[N@H+]1CCCN([C@@H]12)CC(=O)NC2

>  <s_m_subgroup_title>
schrodinger_fragment_collection_epik

>  <s_m_subgroupid>
schrodinger_fragment_collection_epik

>  <b_m_subgroup_collapsed>
0

$$$$
Schrodinger_fragment_52
 OpenBabel04062209313D
Schrodinger Suite 2020-2.
 17 17  0  0  1  0  0  0  0  0999 V2000
    0.1529   -2.1084   -0.2407 C   0  0  0  0  0  0  0  0  0  0  0  0
    0.1605   -3.4914    0.0339 C   0  0  0  0  0  0  0  0  0  0  0  0
    1.3614   -4.1353    0.3962 C   0  0  0  0  0  0  0  0  0  0  0  0
    2.5578   -3.3945    0.4860 C   0  0  0  0  0  0  0  0  0  0  0  0
    2.5457   -2.0112    0.2169 C   0  0  0  0  0  0  0  0  0  0  0  0
    1.3483   -1.3657   -0.1515 C   0  0  0  0  0  0  0  0  0  0  0  0
    4.0759   -1.0768    0.3146 S   0  0  0  0  0  0  0  0  0  0  0  0
    5.1823   -2.0487   -0.5399 N   0  0  0  0  0  0  0  0  0  0  0  0
    3.9396    0.1785   -0.4422 O   0  0  0  0  0  0  0  0  0  0  0  0
    4.5353   -1.0527    1.7131 O   0  0  0  0  0  0  0  0  0  0  0  0
   -0.7689   -1.6172   -0.5208 H   0  0  0  0  0  0  0  0  0  0  0  0
   -0.7571   -4.0602   -0.0353 H   0  0  0  0  0  0  0  0  0  0  0  0
    1.3656   -5.1964    0.6042 H   0  0  0  0  0  0  0  0  0  0  0  0
    3.4848   -3.8767    0.7610 H   0  0  0  0  0  0  0  0  0  0  0  0
    1.3513   -0.3062   -0.3623 H   0  0  0  0  0  0  0  0  0  0  0  0
    6.1003   -1.6043   -0.5197 H   0  0  0  0  0  0  0  0  0  0  0  0
    4.8814   -2.1074   -1.5135 H   0  0  0  0  0  0  0  0  0  0  0  0
  1  2  2  0  0  0  0
  1  6  1  0  0  0  0
  1 11  1  0  0  0  0
  2  3  1  0  0  0  0
  2 12  1  0  0  0  0
  3  4  2  0  0  0  0
  3 13  1  0  0  0  0
  4  5  1  0  0  0  0
  4 14  1  0  0  0  0
  5  6  2  0  0  0  0
  5  7  1  0  0  0  0
  6 15  1  0  0  0  0
  7  8  1  0  0  0  0
  7  9  2  0  0  0  0
  7 10  2  0  0  0  0
  8 16  1  0  0  0  0
  8 17  1  0  0  0  0
M  END
>  <s_m_entry_id>
6428

>  <s_m_entry_name>
Schrodinger_fragment_53

>  <s_m_Source_Path>
/aloy/home/agimeno/Documents/Starting_Project/Part1_SMILES-to-signatures/1.2/Databases/Compounds/Fragment_library/Schrodinger

>  <s_m_Source_File>
schrodinger_fragment_collection_epik.maegz

>  <i_m_Source_File_Index>
59

>  <i_m_number_of_atoms>
17

>  <r_m_molecular_weight>
157.19219

>  <s_m_molecular_formula>
C6H7N1O2S1

>  <r_epik_Ionization_Penalty>
0.0011

>  <r_epik_Ionization_Penalty_Charging>
0.0000

>  <r_epik_Ionization_Penalty_Neutral>
0.0011

>  <r_epik_State_Penalty>
0.0000

>  <i_epik_Tot_Q>
0

>  <r_epik_Metal_State_Penalty>
0.3972

>  <b_epik_Metal_Only>
0

>  <s_canvas_Unique_SMILES_Stereo>
NS(=O)(=O)c1ccccc1

>  <s_m_subgroup_title>
schrodinger_fragment_collection_epik

>  <s_m_subgroupid>
schrodinger_fragment_collection_epik

>  <b_m_subgroup_collapsed>
0

$$$$
Schrodinger_fragment_190_a
 OpenBabel04062209313D
Schrodinger Suite 2020-2.
 13 13  0  0  1  0  0  0  0  0999 V2000
    1.3702   -0.9138   -0.2000 C   0  0  0  0  0  0  0  0  0  0  0  0
    1.3123   -2.4240   -0.0622 C   0  0  0  0  0  0  0  0  0  0  0  0
    2.6841   -2.7689    0.2688 N   0  0  0  0  0  0  0  0  0  0  0  0
    3.3745   -1.6839    0.3101 C   0  0  0  0  0  0  0  0  0  0  0  0
    2.6266   -0.5466    0.0352 N   0  0  0  0  0  0  0  0  0  0  0  0
    4.5653   -1.4451    0.5439 O   0  5  0  0  0  0  0  0  0  0  0  0
    0.4123   -0.1896   -0.4793 O   0  0  0  0  0  0  0  0  0  0  0  0
    3.1530    0.8261    0.0124 C   0  0  0  0  0  0  0  0  0  0  0  0
    0.6194   -2.7115    0.7300 H   0  0  0  0  0  0  0  0  0  0  0  0
    0.9933   -2.8836   -0.9989 H   0  0  0  0  0  0  0  0  0  0  0  0
    3.9398    0.9234   -0.7368 H   0  0  0  0  0  0  0  0  0  0  0  0
    3.5686    1.0944    0.9845 H   0  0  0  0  0  0  0  0  0  0  0  0
    2.3780    1.5555   -0.2272 H   0  0  0  0  0  0  0  0  0  0  0  0
  1  2  1  0  0  0  0
  1  5  1  0  0  0  0
  1  7  2  0  0  0  0
  2  3  1  0  0  0  0
  2  9  1  0  0  0  0
  2 10  1  0  0  0  0
  3  4  2  0  0  0  0
  4  5  1  0  0  0  0
  4  6  1  0  0  0  0
  5  8  1  0  0  0  0
  8 11  1  0  0  0  0
  8 12  1  0  0  0  0
  8 13  1  0  0  0  0
M  CHG  1   6  -1
M  END
>  <s_m_entry_id>
6611

>  <s_m_entry_name>
Schrodinger_fragment_245

>  <s_m_Source_Path>
/aloy/home/agimeno/Documents/Starting_Project/Part1_SMILES-to-signatures/1.2/Databases/Compounds/Fragment_library/Schrodinger

>  <s_m_Source_File>
schrodinger_fragment_collection_epik.maegz

>  <i_m_Source_File_Index>
242

>  <i_m_number_of_atoms>
14

>  <r_m_molecular_weight>
114.10462

>  <s_m_molecular_formula>
C4H6N2O2

>  <r_epik_Ionization_Penalty>
6.0027

>  <r_epik_Ionization_Penalty_Charging>
6.0027

>  <r_epik_Ionization_Penalty_Neutral>
0.0000

>  <r_epik_State_Penalty>
6.0027

>  <i_epik_Tot_Q>
-1

>  <r_epik_Metal_State_Penalty>
1.9331

>  <b_epik_Metal_Only>
1

>  <s_canvas_Unique_SMILES_Stereo>
CN1C([O-])=NCC1=O

>  <s_m_subgroup_title>
schrodinger_fragment_collection_epik

>  <s_m_subgroupid>
schrodinger_fragment_collection_epik

>  <b_m_subgroup_collapsed>
0

$$$$
Schrodinger_fragment_66
 OpenBabel04062209313D
Schrodinger Suite 2020-2.
 17 17  0  0  1  0  0  0  0  0999 V2000
    3.6748   -0.3834    0.2495 C   0  0  0  0  0  0  0  0  0  0  0  0
    3.6787   -1.7960   -0.1821 N   0  3  0  0  0  0  0  0  0  0  0  0
    4.8969   -2.5030    0.2627 C   0  0  0  0  0  0  0  0  0  0  0  0
    6.1572   -1.7427   -0.2082 C   0  0  0  0  0  0  0  0  0  0  0  0
    6.1510   -0.3676    0.3005 N   0  0  0  0  0  0  0  0  0  0  0  0
    4.9668    0.3219   -0.2210 C   0  0  0  0  0  0  0  0  0  0  0  0
    2.7993    0.1179   -0.1652 H   0  0  0  0  0  0  0  0  0  0  0  0
    3.5791   -0.3293    1.3351 H   0  0  0  0  0  0  0  0  0  0  0  0
    2.8650   -2.2629    0.1820 H   0  0  0  0  0  0  0  0  0  0  0  0
    4.8900   -2.6029    1.3492 H   0  0  0  0  0  0  0  0  0  0  0  0
    4.8943   -3.5157   -0.1427 H   0  0  0  0  0  0  0  0  0  0  0  0
    7.0490   -2.2559    0.1554 H   0  0  0  0  0  0  0  0  0  0  0  0
    6.2230   -1.7430   -1.2980 H   0  0  0  0  0  0  0  0  0  0  0  0
    6.0920   -0.3953    1.3173 H   0  0  0  0  0  0  0  0  0  0  0  0
    5.0053    0.3689   -1.3111 H   0  0  0  0  0  0  0  0  0  0  0  0
    4.9676    1.3542    0.1330 H   0  0  0  0  0  0  0  0  0  0  0  0
    3.6322   -1.8290   -1.1864 H   0  0  0  0  0  0  0  0  0  0  0  0
  1  2  1  0  0  0  0
  1  6  1  0  0  0  0
  1  7  1  0  0  0  0
  1  8  1  0  0  0  0
  2  3  1  0  0  0  0
  2  9  1  0  0  0  0
  2 17  1  0  0  0  0
  3  4  1  0  0  0  0
  3 10  1  0  0  0  0
  3 11  1  0  0  0  0
  4  5  1  0  0  0  0
  4 12  1  0  0  0  0
  4 13  1  0  0  0  0
  5  6  1  0  0  0  0
  5 14  1  0  0  0  0
  6 15  1  0  0  0  0
  6 16  1  0  0  0  0
M  CHG  1   2   1
M  END
>  <s_m_entry_id>
6444

>  <s_m_entry_name>
Schrodinger_fragment_68

>  <s_m_Source_Path>
/aloy/home/agimeno/Documents/Starting_Project/Part1_SMILES-to-signatures/1.2/Databases/Compounds/Fragment_library/Schrodinger

>  <s_m_Source_File>
schrodinger_fragment_collection_epik.maegz

>  <i_m_Source_File_Index>
75

>  <i_m_number_of_atoms>
16

>  <r_m_molecular_weight>
86.1377

>  <s_m_molecular_formula>
C4H10N2

>  <r_epik_Ionization_Penalty>
0.0325

>  <r_epik_Ionization_Penalty_Charging>
0.0009

>  <r_epik_Ionization_Penalty_Neutral>
0.0315

>  <r_epik_State_Penalty>
0.0315

>  <i_epik_Tot_Q>
1

>  <r_epik_Metal_State_Penalty>
0.0315

>  <b_epik_Metal_Only>
0

>  <s_canvas_Unique_SMILES_Stereo>
C1C[NH2+]CCN1

>  <s_m_subgroup_title>
schrodinger_fragment_collection_epik

>  <s_m_subgroupid>
schrodinger_fragment_collection_epik

>  <b_m_subgroup_collapsed>
0

$$$$
Schrodinger_fragment_65
 OpenBabel04062209313D
Schrodinger Suite 2020-2.
 23 23  0  0  1  0  0  0  0  0999 V2000
    3.9716   -0.1601   -0.0017 C   0  0  0  0  0  0  0  0  0  0  0  0
    3.9740   -1.6405   -0.0229 N   0  0  0  0  0  0  0  0  0  0  0  0
    5.2126   -2.2391   -0.5696 C   0  0  0  0  0  0  0  0  0  0  0  0
    6.4685   -1.6853    0.1245 C   0  0  0  0  0  0  0  0  0  0  0  0
    6.5075   -0.1560    0.0639 C   0  0  0  0  0  0  0  0  0  0  0  0
    5.2264    0.4037    0.6879 C   0  0  0  0  0  0  0  0  0  0  0  0
    2.4840   -2.4194   -0.4279 S   0  0  0  0  0  0  0  0  0  0  0  0
    2.5868   -4.0072    0.4456 C   0  0  0  0  0  0  0  0  0  0  0  0
    2.4891   -2.6556   -1.8795 O   0  0  0  0  0  0  0  0  0  0  0  0
    1.3971   -1.6387    0.1822 O   0  0  0  0  0  0  0  0  0  0  0  0
    3.8996    0.2096   -1.0261 H   0  0  0  0  0  0  0  0  0  0  0  0
    3.0856    0.2026    0.5209 H   0  0  0  0  0  0  0  0  0  0  0  0
    5.1852   -3.3222   -0.4545 H   0  0  0  0  0  0  0  0  0  0  0  0
    5.2565   -2.0459   -1.6429 H   0  0  0  0  0  0  0  0  0  0  0  0
    6.4894   -2.0151    1.1644 H   0  0  0  0  0  0  0  0  0  0  0  0
    7.3624   -2.0990   -0.3444 H   0  0  0  0  0  0  0  0  0  0  0  0
    7.3832    0.2221    0.5926 H   0  0  0  0  0  0  0  0  0  0  0  0
    6.5961    0.1760   -0.9715 H   0  0  0  0  0  0  0  0  0  0  0  0
    5.2258    1.4926    0.6226 H   0  0  0  0  0  0  0  0  0  0  0  0
    5.1991    0.1628    1.7517 H   0  0  0  0  0  0  0  0  0  0  0  0
    1.6371   -4.5272    0.3399 H   0  0  0  0  0  0  0  0  0  0  0  0
    2.7842   -3.8264    1.4997 H   0  0  0  0  0  0  0  0  0  0  0  0
    3.3749   -4.6211    0.0186 H   0  0  0  0  0  0  0  0  0  0  0  0
  1  2  1  0  0  0  0
  1  6  1  0  0  0  0
  1 11  1  0  0  0  0
  1 12  1  0  0  0  0
  2  3  1  0  0  0  0
  2  7  1  0  0  0  0
  3  4  1  0  0  0  0
  3 13  1  0  0  0  0
  3 14  1  0  0  0  0
  4  5  1  0  0  0  0
  4 15  1  0  0  0  0
  4 16  1  0  0  0  0
  5  6  1  0  0  0  0
  5 17  1  0  0  0  0
  5 18  1  0  0  0  0
  6 19  1  0  0  0  0
  6 20  1  0  0  0  0
  7  8  1  0  0  0  0
  7  9  2  0  0  0  0
  7 10  2  0  0  0  0
  8 21  1  0  0  0  0
  8 22  1  0  0  0  0
  8 23  1  0  0  0  0
M  END
>  <s_m_entry_id>
6443

>  <s_m_entry_name>
Schrodinger_fragment_67

>  <s_m_Source_Path>
/aloy/home/agimeno/Documents/Starting_Project/Part1_SMILES-to-signatures/1.2/Databases/Compounds/Fragment_library/Schrodinger

>  <s_m_Source_File>
schrodinger_fragment_collection_epik.maegz

>  <i_m_Source_File_Index>
74

>  <i_m_number_of_atoms>
23

>  <r_m_molecular_weight>
163.24001

>  <s_m_molecular_formula>
C6H13N1O2S1

>  <r_epik_Ionization_Penalty>
0.0000

>  <r_epik_Ionization_Penalty_Charging>
0.0000

>  <r_epik_Ionization_Penalty_Neutral>
0.0000

>  <r_epik_State_Penalty>
0.0000

>  <i_epik_Tot_Q>
0

>  <r_epik_Metal_State_Penalty>
0.0000

>  <b_epik_Metal_Only>
0

>  <s_canvas_Unique_SMILES_Stereo>
CS(=O)(=O)N1CCCCC1

>  <s_m_subgroup_title>
schrodinger_fragment_collection_epik

>  <s_m_subgroupid>
schrodinger_fragment_collection_epik

>  <b_m_subgroup_collapsed>
0

$$$$
Schrodinger_fragment_401
 OpenBabel04062209313D
Schrodinger Suite 2020-2.
 31 32  0  0  1  0  0  0  0  0999 V2000
    2.4245   -2.2795    0.2933 C   0  0  1  0  0  0  0  0  0  0  0  0
    3.7312   -2.9871   -0.1546 C   0  0  0  0  0  0  0  0  0  0  0  0
    4.9564   -2.1959    0.0223 N   0  0  0  0  0  0  0  0  0  0  0  0
    4.9688   -0.8740    0.3013 C   0  0  0  0  0  0  0  0  0  0  0  0
    3.6355   -0.1344    0.4515 C   0  0  0  0  0  0  0  0  0  0  0  0
    1.2093   -0.1183    0.1130 C   0  0  0  0  0  0  0  0  0  0  0  0
    0.0224   -0.8787   -0.4802 C   0  0  0  0  0  0  0  0  0  0  0  0
   -0.0058   -2.3019    0.0776 C   0  0  0  0  0  0  0  0  0  0  0  0
    6.0181   -0.2386    0.4408 O   0  0  0  0  0  0  0  0  0  0  0  0
    1.1402   -4.3563    0.1985 C   0  0  0  0  0  0  0  0  0  0  0  0
    6.2100   -2.9372   -0.1428 C   0  0  0  0  0  0  0  0  0  0  0  0
    2.3590   -2.3016    1.3839 H   0  0  0  0  0  0  0  0  0  0  0  0
    3.8485   -3.9206    0.3969 H   0  0  0  0  0  0  0  0  0  0  0  0
    3.6661   -3.2527   -1.2113 H   0  0  0  0  0  0  0  0  0  0  0  0
    3.4702    0.0319    1.5164 H   0  0  0  0  0  0  0  0  0  0  0  0
    3.7251    0.8477   -0.0137 H   0  0  0  0  0  0  0  0  0  0  0  0
    1.2678    0.8795   -0.3231 H   0  0  0  0  0  0  0  0  0  0  0  0
    1.0613    0.0138    1.1859 H   0  0  0  0  0  0  0  0  0  0  0  0
   -0.9072   -0.3640   -0.2345 H   0  0  0  0  0  0  0  0  0  0  0  0
    0.0847   -0.8990   -1.5694 H   0  0  0  0  0  0  0  0  0  0  0  0
   -0.1501   -2.2878    1.1605 H   0  0  0  0  0  0  0  0  0  0  0  0
   -0.8563   -2.8374   -0.3490 H   0  0  0  0  0  0  0  0  0  0  0  0
    0.2372   -4.8315   -0.1886 H   0  0  0  0  0  0  0  0  0  0  0  0
    1.1008   -4.4084    1.2883 H   0  0  0  0  0  0  0  0  0  0  0  0
    1.9745   -4.9709   -0.1401 H   0  0  0  0  0  0  0  0  0  0  0  0
    6.8495   -2.4610   -0.8879 H   0  0  0  0  0  0  0  0  0  0  0  0
    6.0422   -3.9641   -0.4701 H   0  0  0  0  0  0  0  0  0  0  0  0
    6.7592   -2.9750    0.7991 H   0  0  0  0  0  0  0  0  0  0  0  0
    2.4748   -0.8516   -0.1291 N   0  3  2  0  0  0  0  0  0  0  0  0
    2.6208   -0.8634   -1.1273 H   0  0  0  0  0  0  0  0  0  0  0  0
    1.2470   -2.9744   -0.2763 N   0  0  0  0  0  0  0  0  0  0  0  0
  1  2  1  0  0  0  0
  1 12  1  0  0  0  0
  1 29  1  6  0  0  0
  1 31  1  0  0  0  0
  2  3  1  0  0  0  0
  2 13  1  0  0  0  0
  2 14  1  0  0  0  0
  3  4  1  0  0  0  0
  3 11  1  0  0  0  0
  4  5  1  0  0  0  0
  4  9  2  0  0  0  0
  5 15  1  0  0  0  0
  5 16  1  0  0  0  0
  5 29  1  0  0  0  0
  6  7  1  0  0  0  0
  6 17  1  0  0  0  0
  6 18  1  0  0  0  0
  6 29  1  0  0  0  0
  7  8  1  0  0  0  0
  7 19  1  0  0  0  0
  7 20  1  0  0  0  0
  8 21  1  0  0  0  0
  8 22  1  0  0  0  0
  8 31  1  0  0  0  0
 10 23  1  0  0  0  0
 10 24  1  0  0  0  0
 10 25  1  0  0  0  0
 10 31  1  0  0  0  0
 11 26  1  0  0  0  0
 11 27  1  0  0  0  0
 11 28  1  0  0  0  0
 29 30  1  6  0  0  0
M  CHG  1  29   1
M  END
>  <s_m_entry_id>
6964

>  <s_m_entry_name>
Schrodinger_fragment_497

>  <s_m_Source_Path>
/aloy/home/agimeno/Documents/Starting_Project/Part1_SMILES-to-signatures/1.2/Databases/Compounds/Fragment_library/Schrodinger

>  <s_m_Source_File>
schrodinger_fragment_collection_epik.maegz

>  <i_m_Source_File_Index>
595

>  <i_m_number_of_atoms>
32

>  <r_m_molecular_weight>
185.27128

>  <s_m_molecular_formula>
C9H19N3O1

>  <r_epik_Ionization_Penalty>
0.0113

>  <r_epik_Ionization_Penalty_Charging>
0.0113

>  <r_epik_Ionization_Penalty_Neutral>
0.0000

>  <r_epik_State_Penalty>
0.8907

>  <i_epik_Tot_Q>
1

>  <r_epik_Metal_State_Penalty>
0.8907

>  <b_epik_Metal_Only>
0

>  <s_canvas_Unique_SMILES_Stereo>
CN(C1)C(=O)C[N@@H+]([C@H]12)CCCN2C

>  <s_m_subgroup_title>
schrodinger_fragment_collection_epik

>  <s_m_subgroupid>
schrodinger_fragment_collection_epik

>  <b_m_subgroup_collapsed>
0

$$$$
Schrodinger_fragment_394
 OpenBabel04062209313D
Schrodinger Suite 2020-2.
 28 29  0  0  1  0  0  0  0  0999 V2000
    2.4941   -2.2289   -0.4213 C   0  0  2  0  0  0  0  0  0  0  0  0
    3.6216   -2.9936    0.3285 C   0  0  0  0  0  0  0  0  0  0  0  0
    4.8760   -2.2396    0.3819 N   0  0  0  0  0  0  0  0  0  0  0  0
    4.9609   -0.9088    0.2656 C   0  0  0  0  0  0  0  0  0  0  0  0
    3.6672   -0.1175   -0.0058 C   0  0  0  0  0  0  0  0  0  0  0  0
    1.2373   -0.1318   -0.2227 C   0  0  0  0  0  0  0  0  0  0  0  0
   -0.0359   -0.8630    0.2515 C   0  0  0  0  0  0  0  0  0  0  0  0
    0.1848   -2.3647    0.5213 C   0  0  0  0  0  0  0  0  0  0  0  0
    6.0388   -0.3245    0.3532 O   0  0  0  0  0  0  0  0  0  0  0  0
    1.2025   -4.4057   -0.4313 C   0  0  0  0  0  0  0  0  0  0  0  0
    2.7865   -2.1224   -1.4688 H   0  0  0  0  0  0  0  0  0  0  0  0
    3.3136   -3.2166    1.3511 H   0  0  0  0  0  0  0  0  0  0  0  0
    3.8360   -3.9472   -0.1544 H   0  0  0  0  0  0  0  0  0  0  0  0
    5.7267   -2.7597    0.5481 H   0  0  0  0  0  0  0  0  0  0  0  0
    3.6588    0.7674    0.6325 H   0  0  0  0  0  0  0  0  0  0  0  0
    3.7171    0.2401   -1.0360 H   0  0  0  0  0  0  0  0  0  0  0  0
    1.2345   -0.0231   -1.3096 H   0  0  0  0  0  0  0  0  0  0  0  0
    1.2532    0.8782    0.1913 H   0  0  0  0  0  0  0  0  0  0  0  0
   -0.4145   -0.3974    1.1623 H   0  0  0  0  0  0  0  0  0  0  0  0
   -0.8194   -0.7275   -0.4953 H   0  0  0  0  0  0  0  0  0  0  0  0
    0.5633   -2.5125    1.5342 H   0  0  0  0  0  0  0  0  0  0  0  0
   -0.7673   -2.8937    0.4638 H   0  0  0  0  0  0  0  0  0  0  0  0
    0.2111   -4.8160   -0.6248 H   0  0  0  0  0  0  0  0  0  0  0  0
    1.5365   -4.7955    0.5306 H   0  0  0  0  0  0  0  0  0  0  0  0
    1.8636   -4.7858   -1.2106 H   0  0  0  0  0  0  0  0  0  0  0  0
    2.4152   -0.8881    0.1981 N   0  0  1  0  0  0  0  0  0  0  0  0
    1.1631   -2.9237   -0.4408 N   0  3  2  0  0  0  0  0  0  0  0  0
    0.7786   -2.7008   -1.3468 H   0  0  0  0  0  0  0  0  0  0  0  0
  1  2  1  0  0  0  0
  1 11  1  0  0  0  0
  1 26  1  1  0  0  0
  2  3  1  0  0  0  0
  2 12  1  0  0  0  0
  2 13  1  0  0  0  0
  3  4  1  0  0  0  0
  3 14  1  0  0  0  0
  4  5  1  0  0  0  0
  4  9  2  0  0  0  0
  5 15  1  0  0  0  0
  5 16  1  0  0  0  0
  6  7  1  0  0  0  0
  6 17  1  0  0  0  0
  6 18  1  0  0  0  0
  7  8  1  0  0  0  0
  7 19  1  0  0  0  0
  7 20  1  0  0  0  0
  8 21  1  0  0  0  0
  8 22  1  0  0  0  0
  8 27  1  0  0  0  0
 10 23  1  0  0  0  0
 10 24  1  0  0  0  0
 10 25  1  0  0  0  0
 10 27  1  0  0  0  0
 26  6  1  6  0  0  0
 26  5  1  0  0  0  0
 27  1  1  1  0  0  0
 27 28  1  0  0  0  0
M  CHG  1  27   1
M  END
>  <s_m_entry_id>
6948

>  <s_m_entry_name>
Schrodinger_fragment_488

>  <s_m_Source_Path>
/aloy/home/agimeno/Documents/Starting_Project/Part1_SMILES-to-signatures/1.2/Databases/Compounds/Fragment_library/Schrodinger

>  <s_m_Source_File>
schrodinger_fragment_collection_epik.maegz

>  <i_m_Source_File_Index>
579

>  <i_m_number_of_atoms>
29

>  <r_m_molecular_weight>
171.24419

>  <s_m_molecular_formula>
C8H17N3O1

>  <r_epik_Ionization_Penalty>
0.0059

>  <r_epik_Ionization_Penalty_Charging>
0.0043

>  <r_epik_Ionization_Penalty_Neutral>
0.0016

>  <r_epik_State_Penalty>
0.1395

>  <i_epik_Tot_Q>
1

>  <r_epik_Metal_State_Penalty>
0.1970

>  <b_epik_Metal_Only>
0

>  <s_canvas_Unique_SMILES_Stereo>
C[N@H+]1CCCN([C@H]12)CC(=O)NC2

>  <s_m_subgroup_title>
schrodinger_fragment_collection_epik

>  <s_m_subgroupid>
schrodinger_fragment_collection_epik

>  <b_m_subgroup_collapsed>
0

$$$$
Schrodinger_fragment_240
 OpenBabel04062209313D
Schrodinger Suite 2020-2.
 18 19  0  0  1  0  0  0  0  0999 V2000
    0.8988    2.4959    0.2096 C   0  0  0  0  0  0  0  0  0  0  0  0
    1.1958    1.0502   -0.2040 C   0  0  0  0  0  0  0  0  0  0  0  0
    2.4754    1.1239    0.2883 N   0  0  0  0  0  0  0  0  0  0  0  0
    2.3559    2.5228    0.6800 C   0  0  1  0  0  0  0  0  0  0  0  0
    3.6270    0.3726    0.1193 C   0  0  0  0  0  0  0  0  0  0  0  0
    4.8197    0.9729   -0.0678 C   0  0  0  0  0  0  0  0  0  0  0  0
    5.0765    2.4860   -0.0941 C   0  0  0  0  0  0  0  0  0  0  0  0
    3.5295    3.4576   -0.3795 S   0  0  0  0  0  0  0  0  0  0  0  0
    0.6115    0.1584   -0.7850 O   0  0  0  0  0  0  0  0  0  0  0  0
    3.1245    3.2799   -1.7866 O   0  0  0  0  0  0  0  0  0  0  0  0
    3.7017    4.8218    0.1505 O   0  0  0  0  0  0  0  0  0  0  0  0
    0.6877    3.1892   -0.6039 H   0  0  0  0  0  0  0  0  0  0  0  0
    0.1844    2.6072    1.0242 H   0  0  0  0  0  0  0  0  0  0  0  0
    2.5152    2.7256    1.7396 H   0  0  0  0  0  0  0  0  0  0  0  0
    3.4764   -0.6992    0.1478 H   0  0  0  0  0  0  0  0  0  0  0  0
    5.6970    0.3507   -0.1783 H   0  0  0  0  0  0  0  0  0  0  0  0
    5.5032    2.8063    0.8543 H   0  0  0  0  0  0  0  0  0  0  0  0
    5.7784    2.7503   -0.8821 H   0  0  0  0  0  0  0  0  0  0  0  0
  1  2  1  0  0  0  0
  1  4  1  0  0  0  0
  1 12  1  0  0  0  0
  1 13  1  0  0  0  0
  2  3  1  0  0  0  0
  2  9  2  0  0  0  0
  3  4  1  0  0  0  0
  3  5  1  0  0  0  0
  4  8  1  0  0  0  0
  4 14  1  1  0  0  0
  5  6  2  0  0  0  0
  5 15  1  0  0  0  0
  6  7  1  0  0  0  0
  6 16  1  0  0  0  0
  7  8  1  0  0  0  0
  7 17  1  0  0  0  0
  7 18  1  0  0  0  0
  8 10  2  0  0  0  0
  8 11  2  0  0  0  0
M  END
>  <s_m_entry_id>
6679

>  <s_m_entry_name>
Schrodinger_fragment_301

>  <s_m_Source_Path>
/aloy/home/agimeno/Documents/Starting_Project/Part1_SMILES-to-signatures/1.2/Databases/Compounds/Fragment_library/Schrodinger

>  <s_m_Source_File>
schrodinger_fragment_collection_epik.maegz

>  <i_m_Source_File_Index>
310

>  <i_m_number_of_atoms>
18

>  <r_m_molecular_weight>
173.19159

>  <s_m_molecular_formula>
C6H7N1O3S1

>  <r_epik_Ionization_Penalty>
0.0000

>  <r_epik_Ionization_Penalty_Charging>
0.0000

>  <r_epik_Ionization_Penalty_Neutral>
0.0000

>  <r_epik_State_Penalty>
0.0000

>  <i_epik_Tot_Q>
0

>  <r_epik_Metal_State_Penalty>
0.0000

>  <b_epik_Metal_Only>
0

>  <s_canvas_Unique_SMILES_Stereo>
C1C(=O)N([C@H]12)C=CCS2(=O)=O

>  <s_m_subgroup_title>
schrodinger_fragment_collection_epik

>  <s_m_subgroupid>
schrodinger_fragment_collection_epik

>  <b_m_subgroup_collapsed>
0

$$$$
Schrodinger_fragment_400_a
 OpenBabel04062209313D
Schrodinger Suite 2020-2.
 31 32  0  0  1  0  0  0  0  0999 V2000
    2.4705   -2.2204   -0.5055 C   0  0  2  0  0  0  0  0  0  0  0  0
    3.6258   -2.9909    0.1760 C   0  0  0  0  0  0  0  0  0  0  0  0
    4.8773   -2.2109    0.2352 N   0  0  0  0  0  0  0  0  0  0  0  0
    4.9590   -0.8783   -0.0124 C   0  0  0  0  0  0  0  0  0  0  0  0
    3.6727   -0.0970   -0.3322 C   0  0  0  0  0  0  0  0  0  0  0  0
    1.1798   -0.1393   -0.1525 C   0  0  0  0  0  0  0  0  0  0  0  0
    0.0416   -0.9112    0.5500 C   0  0  0  0  0  0  0  0  0  0  0  0
    0.3036   -2.4307    0.6658 C   0  0  0  0  0  0  0  0  0  0  0  0
    6.0305   -0.2664    0.0194 O   0  0  0  0  0  0  0  0  0  0  0  0
    1.1511   -4.3179   -0.5992 C   0  0  0  0  0  0  0  0  0  0  0  0
    6.0762   -2.9812    0.5768 C   0  0  0  0  0  0  0  0  0  0  0  0
    2.7096   -2.1423   -1.5685 H   0  0  0  0  0  0  0  0  0  0  0  0
    3.3494   -3.2680    1.1946 H   0  0  0  0  0  0  0  0  0  0  0  0
    3.8189   -3.9196   -0.3628 H   0  0  0  0  0  0  0  0  0  0  0  0
    3.6996    0.8579    0.1931 H   0  0  0  0  0  0  0  0  0  0  0  0
    3.6509    0.1220   -1.4001 H   0  0  0  0  0  0  0  0  0  0  0  0
    0.9865   -0.0718   -1.2242 H   0  0  0  0  0  0  0  0  0  0  0  0
    1.2309    0.8825    0.2250 H   0  0  0  0  0  0  0  0  0  0  0  0
   -0.1226   -0.5078    1.5501 H   0  0  0  0  0  0  0  0  0  0  0  0
   -0.8873   -0.7347    0.0062 H   0  0  0  0  0  0  0  0  0  0  0  0
    0.8001   -2.6691    1.6088 H   0  0  0  0  0  0  0  0  0  0  0  0
   -0.6491   -2.9640    0.6730 H   0  0  0  0  0  0  0  0  0  0  0  0
    0.1375   -4.7017   -0.7246 H   0  0  0  0  0  0  0  0  0  0  0  0
    1.5833   -4.8095    0.2740 H   0  0  0  0  0  0  0  0  0  0  0  0
    1.7215   -4.6186   -1.4795 H   0  0  0  0  0  0  0  0  0  0  0  0
    6.6116   -2.5221    1.4096 H   0  0  0  0  0  0  0  0  0  0  0  0
    6.7551   -3.0298   -0.2758 H   0  0  0  0  0  0  0  0  0  0  0  0
    5.8383   -4.0043    0.8708 H   0  0  0  0  0  0  0  0  0  0  0  0
    2.4596   -0.8461    0.0570 N   0  3  1  0  0  0  0  0  0  0  0  0
    2.5433   -0.9558    1.0558 H   0  0  0  0  0  0  0  0  0  0  0  0
    1.1366   -2.8637   -0.4555 N   0  0  0  0  0  0  0  0  0  0  0  0
  1  2  1  0  0  0  0
  1 12  1  0  0  0  0
  1 29  1  1  0  0  0
  1 31  1  0  0  0  0
  2  3  1  0  0  0  0
  2 13  1  0  0  0  0
  2 14  1  0  0  0  0
  3  4  1  0  0  0  0
  3 11  1  0  0  0  0
  4  5  1  0  0  0  0
  4  9  2  0  0  0  0
  5 15  1  0  0  0  0
  5 16  1  0  0  0  0
  5 29  1  0  0  0  0
  6  7  1  0  0  0  0
  6 17  1  0  0  0  0
  6 18  1  0  0  0  0
  6 29  1  0  0  0  0
  7  8  1  0  0  0  0
  7 19  1  0  0  0  0
  7 20  1  0  0  0  0
  8 21  1  0  0  0  0
  8 22  1  0  0  0  0
  8 31  1  0  0  0  0
 10 23  1  0  0  0  0
 10 24  1  0  0  0  0
 10 25  1  0  0  0  0
 10 31  1  0  0  0  0
 11 26  1  0  0  0  0
 11 27  1  0  0  0  0
 11 28  1  0  0  0  0
 29 30  1  1  0  0  0
M  CHG  1  29   1
M  END
>  <s_m_entry_id>
6963

>  <s_m_entry_name>
Schrodinger_fragment_496

>  <s_m_Source_Path>
/aloy/home/agimeno/Documents/Starting_Project/Part1_SMILES-to-signatures/1.2/Databases/Compounds/Fragment_library/Schrodinger

>  <s_m_Source_File>
schrodinger_fragment_collection_epik.maegz

>  <i_m_Source_File_Index>
594

>  <i_m_number_of_atoms>
32

>  <r_m_molecular_weight>
185.27128

>  <s_m_molecular_formula>
C9H19N3O1

>  <r_epik_Ionization_Penalty>
0.0113

>  <r_epik_Ionization_Penalty_Charging>
0.0113

>  <r_epik_Ionization_Penalty_Neutral>
0.0000

>  <r_epik_State_Penalty>
0.8907

>  <i_epik_Tot_Q>
1

>  <r_epik_Metal_State_Penalty>
0.8907

>  <b_epik_Metal_Only>
0

>  <s_canvas_Unique_SMILES_Stereo>
CN(C1)C(=O)C[N@H+]([C@@H]12)CCCN2C

>  <s_m_subgroup_title>
schrodinger_fragment_collection_epik

>  <s_m_subgroupid>
schrodinger_fragment_collection_epik

>  <b_m_subgroup_collapsed>
0

$$$$
Schrodinger_fragment_214_a
 OpenBabel04062209313D
Schrodinger Suite 2020-2.
 14 14  0  0  1  0  0  0  0  0999 V2000
    1.4627   -2.2216    0.0241 N   0  0  0  0  0  0  0  0  0  0  0  0
    1.4813   -3.6502    0.0280 C   0  0  0  0  0  0  0  0  0  0  0  0
    2.6035   -4.2889    0.0291 N   0  0  0  0  0  0  0  0  0  0  0  0
    3.8106   -3.5932    0.0263 C   0  0  0  0  0  0  0  0  0  0  0  0
    3.8559   -2.2491    0.0224 C   0  0  0  0  0  0  0  0  0  0  0  0
    2.6171   -1.4810    0.0211 C   0  0  0  0  0  0  0  0  0  0  0  0
    2.6197   -0.2455    0.0175 O   0  0  0  0  0  0  0  0  0  0  0  0
    0.3413   -4.1336    0.0301 O   0  5  0  0  0  0  0  0  0  0  0  0
    0.1595   -1.5084    0.0231 C   0  0  0  0  0  0  0  0  0  0  0  0
    4.7154   -4.1865    0.0273 H   0  0  0  0  0  0  0  0  0  0  0  0
    4.8067   -1.7348    0.0202 H   0  0  0  0  0  0  0  0  0  0  0  0
    0.2318   -0.4205    0.0212 H   0  0  0  0  0  0  0  0  0  0  0  0
   -0.4226   -1.7725    0.9074 H   0  0  0  0  0  0  0  0  0  0  0  0
   -0.4227   -1.7757   -0.8603 H   0  0  0  0  0  0  0  0  0  0  0  0
  1  2  1  0  0  0  0
  1  6  1  0  0  0  0
  1  9  1  0  0  0  0
  2  3  2  0  0  0  0
  2  8  1  0  0  0  0
  3  4  1  0  0  0  0
  4  5  2  0  0  0  0
  4 10  1  0  0  0  0
  5  6  1  0  0  0  0
  5 11  1  0  0  0  0
  6  7  2  0  0  0  0
  9 12  1  0  0  0  0
  9 13  1  0  0  0  0
  9 14  1  0  0  0  0
M  CHG  1   8  -1
M  END
>  <s_m_entry_id>
6644

>  <s_m_entry_name>
Schrodinger_fragment_271

>  <s_m_Source_Path>
/aloy/home/agimeno/Documents/Starting_Project/Part1_SMILES-to-signatures/1.2/Databases/Compounds/Fragment_library/Schrodinger

>  <s_m_Source_File>
schrodinger_fragment_collection_epik.maegz

>  <i_m_Source_File_Index>
275

>  <i_m_number_of_atoms>
15

>  <r_m_molecular_weight>
126.11577

>  <s_m_molecular_formula>
C5H6N2O2

>  <r_epik_Ionization_Penalty>
3.1991

>  <r_epik_Ionization_Penalty_Charging>
0.0000

>  <r_epik_Ionization_Penalty_Neutral>
3.1991

>  <r_epik_State_Penalty>
3.1964

>  <i_epik_Tot_Q>
-1

>  <r_epik_Metal_State_Penalty>
0.1180

>  <b_epik_Metal_Only>
1

>  <s_canvas_Unique_SMILES_Stereo>
Cn1c([O-])nccc1=O

>  <s_m_subgroup_title>
schrodinger_fragment_collection_epik

>  <s_m_subgroupid>
schrodinger_fragment_collection_epik

>  <b_m_subgroup_collapsed>
0

$$$$
Schrodinger_fragment_106
 OpenBabel04062209313D
Schrodinger Suite 2020-2.
 19 20  0  0  1  0  0  0  0  0999 V2000
    2.2212    2.1242    0.0605 C   0  0  0  0  0  0  0  0  0  0  0  0
    2.2232    0.7384    0.0557 C   0  0  0  0  0  0  0  0  0  0  0  0
    3.4241    0.0066    0.0307 C   0  0  0  0  0  0  0  0  0  0  0  0
    4.6400    0.7269    0.0124 C   0  0  0  0  0  0  0  0  0  0  0  0
    4.6379    2.1432    0.0173 C   0  0  0  0  0  0  0  0  0  0  0  0
    3.4198    2.8597    0.0404 C   0  0  0  0  0  0  0  0  0  0  0  0
    0.8083    2.6484    0.0805 C   0  0  0  0  0  0  0  0  0  0  0  0
    0.8120    0.2098    0.0720 C   0  0  0  0  0  0  0  0  0  0  0  0
    3.4193   -1.0751    0.0253 H   0  0  0  0  0  0  0  0  0  0  0  0
    5.5800    0.1921   -0.0063 H   0  0  0  0  0  0  0  0  0  0  0  0
    5.5763    2.6809    0.0021 H   0  0  0  0  0  0  0  0  0  0  0  0
    3.4118    3.9414    0.0425 H   0  0  0  0  0  0  0  0  0  0  0  0
    0.5961    3.1156    1.0426 H   0  0  0  0  0  0  0  0  0  0  0  0
    0.6327    3.3745   -0.7136 H   0  0  0  0  0  0  0  0  0  0  0  0
    0.6386   -0.5113   -0.7272 H   0  0  0  0  0  0  0  0  0  0  0  0
    0.6011   -0.2648    1.0308 H   0  0  0  0  0  0  0  0  0  0  0  0
   -0.0161    1.4285   -0.1071 N   0  3  0  0  0  0  0  0  0  0  0  0
   -0.8038    1.4251    0.5172 H   0  0  0  0  0  0  0  0  0  0  0  0
   -0.3631    1.4312   -1.0503 H   0  0  0  0  0  0  0  0  0  0  0  0
  1  2  2  0  0  0  0
  1  6  1  0  0  0  0
  1  7  1  0  0  0  0
  2  3  1  0  0  0  0
  2  8  1  0  0  0  0
  3  4  2  0  0  0  0
  3  9  1  0  0  0  0
  4  5  1  0  0  0  0
  4 10  1  0  0  0  0
  5  6  2  0  0  0  0
  5 11  1  0  0  0  0
  6 12  1  0  0  0  0
  7 13  1  0  0  0  0
  7 14  1  0  0  0  0
  7 17  1  0  0  0  0
  8 15  1  0  0  0  0
  8 16  1  0  0  0  0
  8 17  1  0  0  0  0
 17 18  1  0  0  0  0
 17 19  1  0  0  0  0
M  CHG  1  17   1
M  END
>  <s_m_entry_id>
6497

>  <s_m_entry_name>
Schrodinger_fragment_118

>  <s_m_Source_Path>
/aloy/home/agimeno/Documents/Starting_Project/Part1_SMILES-to-signatures/1.2/Databases/Compounds/Fragment_library/Schrodinger

>  <s_m_Source_File>
schrodinger_fragment_collection_epik.maegz

>  <i_m_Source_File_Index>
128

>  <i_m_number_of_atoms>
19

>  <r_m_molecular_weight>
120.1756

>  <s_m_molecular_formula>
C8H10N1

>  <r_epik_Ionization_Penalty>
0.0049

>  <r_epik_Ionization_Penalty_Charging>
0.0049

>  <r_epik_Ionization_Penalty_Neutral>
0.0000

>  <r_epik_State_Penalty>
0.0000

>  <i_epik_Tot_Q>
1

>  <r_epik_Metal_State_Penalty>
0.0000

>  <b_epik_Metal_Only>
0

>  <s_canvas_Unique_SMILES_Stereo>
C1[NH2+]Cc(c12)cccc2

>  <s_m_subgroup_title>
schrodinger_fragment_collection_epik

>  <s_m_subgroupid>
schrodinger_fragment_collection_epik

>  <b_m_subgroup_collapsed>
0

$$$$
Schrodinger_fragment_321
 OpenBabel04062209313D
Schrodinger Suite 2020-2.
 22 23  0  0  1  0  0  0  0  0999 V2000
    1.9349    3.0669   -0.4553 C   0  0  2  0  0  0  0  0  0  0  0  0
    0.8265    2.3149   -1.2163 C   0  0  0  0  0  0  0  0  0  0  0  0
    0.3261    1.2549   -0.2133 C   0  0  0  0  0  0  0  0  0  0  0  0
    1.1870    1.4826    1.0438 C   0  0  1  0  0  0  0  0  0  0  0  0
    2.4914    0.6479    1.0120 C   0  0  0  0  0  0  0  0  0  0  0  0
    3.3235    2.4105   -0.6559 C   0  0  0  0  0  0  0  0  0  0  0  0
    3.3106    0.9112   -0.2739 C   0  0  0  0  0  0  0  0  0  0  0  0
    1.9712    4.1218   -0.7319 H   0  0  0  0  0  0  0  0  0  0  0  0
    0.0141    2.9959   -1.4734 H   0  0  0  0  0  0  0  0  0  0  0  0
    1.1872    1.8765   -2.1475 H   0  0  0  0  0  0  0  0  0  0  0  0
   -0.7273    1.4253    0.0128 H   0  0  0  0  0  0  0  0  0  0  0  0
    0.4135    0.2376   -0.5968 H   0  0  0  0  0  0  0  0  0  0  0  0
    0.6288    1.2783    1.9587 H   0  0  0  0  0  0  0  0  0  0  0  0
    3.0962    0.8890    1.8874 H   0  0  0  0  0  0  0  0  0  0  0  0
    2.2606   -0.4151    1.0929 H   0  0  0  0  0  0  0  0  0  0  0  0
    3.6492    2.5263   -1.6905 H   0  0  0  0  0  0  0  0  0  0  0  0
    4.0628    2.9365   -0.0500 H   0  0  0  0  0  0  0  0  0  0  0  0
    4.3285    0.5356   -0.1630 H   0  0  0  0  0  0  0  0  0  0  0  0
    2.8751    0.3399   -1.0949 H   0  0  0  0  0  0  0  0  0  0  0  0
    1.5506    2.9035    0.9536 N   0  3  0  0  0  0  0  0  0  0  0  0
    2.2927    3.1524    1.5868 H   0  0  0  0  0  0  0  0  0  0  0  0
    0.7452    3.4743    1.1549 H   0  0  0  0  0  0  0  0  0  0  0  0
  1  2  1  0  0  0  0
  1  6  1  0  0  0  0
  1  8  1  6  0  0  0
  1 20  1  0  0  0  0
  2  3  1  0  0  0  0
  2  9  1  0  0  0  0
  2 10  1  0  0  0  0
  3  4  1  0  0  0  0
  3 11  1  0  0  0  0
  3 12  1  0  0  0  0
  4  5  1  0  0  0  0
  4 13  1  1  0  0  0
  4 20  1  0  0  0  0
  5  7  1  0  0  0  0
  5 14  1  0  0  0  0
  5 15  1  0  0  0  0
  6  7  1  0  0  0  0
  6 16  1  0  0  0  0
  6 17  1  0  0  0  0
  7 18  1  0  0  0  0
  7 19  1  0  0  0  0
 20 21  1  0  0  0  0
 20 22  1  0  0  0  0
M  CHG  1  20   1
M  END
>  <s_m_entry_id>
6836

>  <s_m_entry_name>
Schrodinger_fragment_406

>  <s_m_Source_Path>
/aloy/home/agimeno/Documents/Starting_Project/Part1_SMILES-to-signatures/1.2/Databases/Compounds/Fragment_library/Schrodinger

>  <s_m_Source_File>
schrodinger_fragment_collection_epik.maegz

>  <i_m_Source_File_Index>
467

>  <i_m_number_of_atoms>
22

>  <r_m_molecular_weight>
112.19633

>  <s_m_molecular_formula>
C7H14N1

>  <r_epik_Ionization_Penalty>
0.0004

>  <r_epik_Ionization_Penalty_Charging>
0.0004

>  <r_epik_Ionization_Penalty_Neutral>
0.0000

>  <r_epik_State_Penalty>
0.0000

>  <i_epik_Tot_Q>
1

>  <r_epik_Metal_State_Penalty>
0.0000

>  <b_epik_Metal_Only>
0

>  <s_canvas_Unique_SMILES_Stereo>
[C@@H]12CC[C@H]([NH2+]2)CCC1

>  <s_m_subgroup_title>
schrodinger_fragment_collection_epik

>  <s_m_subgroupid>
schrodinger_fragment_collection_epik

>  <b_m_subgroup_collapsed>
0

$$$$
Schrodinger_fragment_256
 OpenBabel04062209313D
Schrodinger Suite 2020-2.
 29 30  0  0  1  0  0  0  0  0999 V2000
   -0.0276   -0.9290    1.0635 C   0  0  0  0  0  0  0  0  0  0  0  0
   -0.2608   -1.7465   -0.2162 C   0  0  0  0  0  0  0  0  0  0  0  0
    2.0624   -1.1035   -0.1755 C   0  0  2  0  0  0  0  0  0  0  0  0
    1.3204   -0.2326    0.8556 C   0  0  0  0  0  0  0  0  0  0  0  0
    2.8916   -2.2161    0.4938 C   0  0  0  0  0  0  0  0  0  0  0  0
    4.1487   -2.2191    0.0384 N   0  0  0  0  0  0  0  0  0  0  0  0
    4.4012   -1.1936   -0.9589 C   0  0  0  0  0  0  0  0  0  0  0  0
    3.1307   -0.3290   -0.9780 C   0  0  0  0  0  0  0  0  0  0  0  0
    2.4335   -3.0061    1.3254 O   0  0  0  0  0  0  0  0  0  0  0  0
    1.2489   -2.8193   -1.8887 C   0  0  0  0  0  0  0  0  0  0  0  0
    5.1977   -3.1483    0.4417 C   0  0  0  0  0  0  0  0  0  0  0  0
   -0.8324   -0.2177    1.2529 H   0  0  0  0  0  0  0  0  0  0  0  0
    0.0235   -1.5986    1.9234 H   0  0  0  0  0  0  0  0  0  0  0  0
   -0.4678   -2.7865    0.0419 H   0  0  0  0  0  0  0  0  0  0  0  0
   -1.1169   -1.3753   -0.7807 H   0  0  0  0  0  0  0  0  0  0  0  0
    1.1537    0.7666    0.4509 H   0  0  0  0  0  0  0  0  0  0  0  0
    1.8698   -0.1125    1.7908 H   0  0  0  0  0  0  0  0  0  0  0  0
    5.2848   -0.6046   -0.7078 H   0  0  0  0  0  0  0  0  0  0  0  0
    4.5719   -1.6633   -1.9290 H   0  0  0  0  0  0  0  0  0  0  0  0
    2.8200   -0.1033   -1.9987 H   0  0  0  0  0  0  0  0  0  0  0  0
    3.3448    0.6273   -0.4987 H   0  0  0  0  0  0  0  0  0  0  0  0
    2.1408   -2.6655   -2.4965 H   0  0  0  0  0  0  0  0  0  0  0  0
    0.4171   -2.9953   -2.5712 H   0  0  0  0  0  0  0  0  0  0  0  0
    1.3851   -3.7282   -1.3017 H   0  0  0  0  0  0  0  0  0  0  0  0
    6.1300   -2.9480   -0.0873 H   0  0  0  0  0  0  0  0  0  0  0  0
    4.9029   -4.1765    0.2276 H   0  0  0  0  0  0  0  0  0  0  0  0
    5.3921   -3.0655    1.5118 H   0  0  0  0  0  0  0  0  0  0  0  0
    0.9677   -1.6348   -1.0379 N   0  3  1  0  0  0  0  0  0  0  0  0
    0.7687   -0.8847   -1.6819 H   0  0  0  0  0  0  0  0  0  0  0  0
  1  2  1  0  0  0  0
  1  4  1  0  0  0  0
  1 12  1  0  0  0  0
  1 13  1  0  0  0  0
  2 14  1  0  0  0  0
  2 15  1  0  0  0  0
  2 28  1  0  0  0  0
  3  4  1  0  0  0  0
  3  5  1  0  0  0  0
  3  8  1  0  0  0  0
  3 28  1  6  0  0  0
  4 16  1  0  0  0  0
  4 17  1  0  0  0  0
  5  6  1  0  0  0  0
  5  9  2  0  0  0  0
  6  7  1  0  0  0  0
  6 11  1  0  0  0  0
  7  8  1  0  0  0  0
  7 18  1  0  0  0  0
  7 19  1  0  0  0  0
  8 20  1  0  0  0  0
  8 21  1  0  0  0  0
 10 22  1  0  0  0  0
 10 23  1  0  0  0  0
 10 24  1  0  0  0  0
 10 28  1  0  0  0  0
 11 25  1  0  0  0  0
 11 26  1  0  0  0  0
 11 27  1  0  0  0  0
 28 29  1  6  0  0  0
M  CHG  1  28   1
M  END
>  <s_m_entry_id>
6701

>  <s_m_entry_name>
Schrodinger_fragment_317

>  <s_m_Source_Path>
/aloy/home/agimeno/Documents/Starting_Project/Part1_SMILES-to-signatures/1.2/Databases/Compounds/Fragment_library/Schrodinger

>  <s_m_Source_File>
schrodinger_fragment_collection_epik.maegz

>  <i_m_Source_File_Index>
332

>  <i_m_number_of_atoms>
29

>  <r_m_molecular_weight>
169.24864

>  <s_m_molecular_formula>
C9H17N2O1

>  <r_epik_Ionization_Penalty>
0.0004

>  <r_epik_Ionization_Penalty_Charging>
0.0004

>  <r_epik_Ionization_Penalty_Neutral>
0.0000

>  <r_epik_State_Penalty>
0.0000

>  <i_epik_Tot_Q>
1

>  <r_epik_Metal_State_Penalty>
0.0000

>  <b_epik_Metal_Only>
0

>  <s_canvas_Unique_SMILES_Stereo>
C1CN(C)C(=O)[C@@]12CCC[N@@H+]2C

>  <s_m_subgroup_title>
schrodinger_fragment_collection_epik

>  <s_m_subgroupid>
schrodinger_fragment_collection_epik

>  <b_m_subgroup_collapsed>
0

$$$$
Schrodinger_fragment_257
 OpenBabel04062209313D
Schrodinger Suite 2020-2.
 29 30  0  0  1  0  0  0  0  0999 V2000
   -0.0480   -0.3058    0.5204 C   0  0  0  0  0  0  0  0  0  0  0  0
   -0.3223   -1.5233   -0.3690 C   0  0  0  0  0  0  0  0  0  0  0  0
    2.0464   -1.4070    0.0866 C   0  0  2  0  0  0  0  0  0  0  0  0
    1.2926   -0.6201    1.1773 C   0  0  0  0  0  0  0  0  0  0  0  0
    3.0727   -2.3911    0.6503 C   0  0  0  0  0  0  0  0  0  0  0  0
    4.2610   -2.2404    0.0546 N   0  0  0  0  0  0  0  0  0  0  0  0
    4.2604   -1.2152   -0.9772 C   0  0  0  0  0  0  0  0  0  0  0  0
    2.9101   -0.4972   -0.8240 C   0  0  0  0  0  0  0  0  0  0  0  0
    2.7994   -3.2360    1.5081 O   0  0  0  0  0  0  0  0  0  0  0  0
    1.2079   -2.6118   -2.0088 C   0  0  0  0  0  0  0  0  0  0  0  0
    5.4542   -3.0340    0.3241 C   0  0  0  0  0  0  0  0  0  0  0  0
    0.0471    0.5869   -0.0997 H   0  0  0  0  0  0  0  0  0  0  0  0
   -0.8442   -0.1237    1.2431 H   0  0  0  0  0  0  0  0  0  0  0  0
   -0.9859   -2.2282    0.1333 H   0  0  0  0  0  0  0  0  0  0  0  0
   -0.8115   -1.2222   -1.2966 H   0  0  0  0  0  0  0  0  0  0  0  0
    1.8136    0.2781    1.5097 H   0  0  0  0  0  0  0  0  0  0  0  0
    1.1263   -1.2374    2.0621 H   0  0  0  0  0  0  0  0  0  0  0  0
    5.0987   -0.5271   -0.8575 H   0  0  0  0  0  0  0  0  0  0  0  0
    4.3464   -1.6858   -1.9579 H   0  0  0  0  0  0  0  0  0  0  0  0
    2.4577   -0.2495   -1.7826 H   0  0  0  0  0  0  0  0  0  0  0  0
    3.0894    0.4602   -0.3338 H   0  0  0  0  0  0  0  0  0  0  0  0
    2.1742   -3.1017   -2.1286 H   0  0  0  0  0  0  0  0  0  0  0  0
    1.1548   -1.7763   -2.7062 H   0  0  0  0  0  0  0  0  0  0  0  0
    0.4431   -3.3290   -2.3076 H   0  0  0  0  0  0  0  0  0  0  0  0
    6.2877   -2.7239   -0.3070 H   0  0  0  0  0  0  0  0  0  0  0  0
    5.2635   -4.0913    0.1351 H   0  0  0  0  0  0  0  0  0  0  0  0
    5.7602   -2.9240    1.3653 H   0  0  0  0  0  0  0  0  0  0  0  0
    0.9815   -2.1878   -0.6045 N   0  3  2  0  0  0  0  0  0  0  0  0
    0.9447   -3.0428   -0.0654 H   0  0  0  0  0  0  0  0  0  0  0  0
  1  2  1  0  0  0  0
  1  4  1  0  0  0  0
  1 12  1  0  0  0  0
  1 13  1  0  0  0  0
  2 14  1  0  0  0  0
  2 15  1  0  0  0  0
  2 28  1  0  0  0  0
  3  4  1  0  0  0  0
  3  5  1  0  0  0  0
  3  8  1  0  0  0  0
  3 28  1  6  0  0  0
  4 16  1  0  0  0  0
  4 17  1  0  0  0  0
  5  6  1  0  0  0  0
  5  9  2  0  0  0  0
  6  7  1  0  0  0  0
  6 11  1  0  0  0  0
  7  8  1  0  0  0  0
  7 18  1  0  0  0  0
  7 19  1  0  0  0  0
  8 20  1  0  0  0  0
  8 21  1  0  0  0  0
 10 22  1  0  0  0  0
 10 23  1  0  0  0  0
 10 24  1  0  0  0  0
 10 28  1  0  0  0  0
 11 25  1  0  0  0  0
 11 26  1  0  0  0  0
 11 27  1  0  0  0  0
 28 29  1  1  0  0  0
M  CHG  1  28   1
M  END
>  <s_m_entry_id>
6702

>  <s_m_entry_name>
Schrodinger_fragment_318

>  <s_m_Source_Path>
/aloy/home/agimeno/Documents/Starting_Project/Part1_SMILES-to-signatures/1.2/Databases/Compounds/Fragment_library/Schrodinger

>  <s_m_Source_File>
schrodinger_fragment_collection_epik.maegz

>  <i_m_Source_File_Index>
333

>  <i_m_number_of_atoms>
29

>  <r_m_molecular_weight>
169.24864

>  <s_m_molecular_formula>
C9H17N2O1

>  <r_epik_Ionization_Penalty>
0.0004

>  <r_epik_Ionization_Penalty_Charging>
0.0004

>  <r_epik_Ionization_Penalty_Neutral>
0.0000

>  <r_epik_State_Penalty>
0.0000

>  <i_epik_Tot_Q>
1

>  <r_epik_Metal_State_Penalty>
0.0000

>  <b_epik_Metal_Only>
0

>  <s_canvas_Unique_SMILES_Stereo>
C1CN(C)C(=O)[C@@]12CCC[N@H+]2C

>  <s_m_subgroup_title>
schrodinger_fragment_collection_epik

>  <s_m_subgroupid>
schrodinger_fragment_collection_epik

>  <b_m_subgroup_collapsed>
0

$$$$
Schrodinger_fragment_278
 OpenBabel04062209313D
Schrodinger Suite 2020-2.
 26 27  0  0  1  0  0  0  0  0999 V2000
    2.3742   -1.4264   -0.0760 C   0  0  2  0  0  0  0  0  0  0  0  0
    2.4085   -2.8861   -0.0277 N   0  0  0  0  0  0  0  0  0  0  0  0
    3.4884   -3.6236    0.3076 C   0  0  0  0  0  0  0  0  0  0  0  0
    4.7743   -2.8935    0.7389 C   0  0  0  0  0  0  0  0  0  0  0  0
    3.4679   -0.7786    0.7952 C   0  0  0  0  0  0  0  0  0  0  0  0
    0.9307   -1.0654    0.2790 C   0  0  0  0  0  0  0  0  0  0  0  0
    0.1308   -2.2183   -0.3253 C   0  0  0  0  0  0  0  0  0  0  0  0
    1.0675   -3.4317   -0.2364 C   0  0  0  0  0  0  0  0  0  0  0  0
    3.4651   -4.8580    0.3170 O   0  0  0  0  0  0  0  0  0  0  0  0
    2.5426   -1.1461   -1.1173 H   0  0  0  0  0  0  0  0  0  0  0  0
    5.3901   -1.0111   -0.7559 C   0  0  0  0  0  0  0  0  0  0  0  0
    4.8900   -3.0746    1.8074 H   0  0  0  0  0  0  0  0  0  0  0  0
    5.6374   -3.3565    0.2599 H   0  0  0  0  0  0  0  0  0  0  0  0
    3.5185    0.2971    0.6217 H   0  0  0  0  0  0  0  0  0  0  0  0
    3.2277   -0.9068    1.8518 H   0  0  0  0  0  0  0  0  0  0  0  0
    0.7955   -1.0506    1.3619 H   0  0  0  0  0  0  0  0  0  0  0  0
    0.6287   -0.0916   -0.1094 H   0  0  0  0  0  0  0  0  0  0  0  0
   -0.8202   -2.3823    0.1834 H   0  0  0  0  0  0  0  0  0  0  0  0
   -0.0899   -2.0026   -1.3721 H   0  0  0  0  0  0  0  0  0  0  0  0
    1.0232   -4.0445   -1.1382 H   0  0  0  0  0  0  0  0  0  0  0  0
    0.7932   -4.0628    0.6112 H   0  0  0  0  0  0  0  0  0  0  0  0
    5.4174    0.0747   -0.8502 H   0  0  0  0  0  0  0  0  0  0  0  0
    4.8413   -1.4121   -1.6079 H   0  0  0  0  0  0  0  0  0  0  0  0
    6.4179   -1.3678   -0.8248 H   0  0  0  0  0  0  0  0  0  0  0  0
    4.7811   -1.4176    0.5329 N   0  3  2  0  0  0  0  0  0  0  0  0
    5.4066   -1.0483    1.2330 H   0  0  0  0  0  0  0  0  0  0  0  0
  1  2  1  0  0  0  0
  1  5  1  0  0  0  0
  1  6  1  0  0  0  0
  1 10  1  6  0  0  0
  2  3  1  0  0  0  0
  2  8  1  0  0  0  0
  3  4  1  0  0  0  0
  3  9  2  0  0  0  0
  4 12  1  0  0  0  0
  4 13  1  0  0  0  0
  4 25  1  0  0  0  0
  5 14  1  0  0  0  0
  5 15  1  0  0  0  0
  5 25  1  0  0  0  0
  6  7  1  0  0  0  0
  6 16  1  0  0  0  0
  6 17  1  0  0  0  0
  7  8  1  0  0  0  0
  7 18  1  0  0  0  0
  7 19  1  0  0  0  0
  8 20  1  0  0  0  0
  8 21  1  0  0  0  0
 11 22  1  0  0  0  0
 11 23  1  0  0  0  0
 11 24  1  0  0  0  0
 11 25  1  0  0  0  0
 25 26  1  1  0  0  0
M  CHG  1  25   1
M  END
>  <s_m_entry_id>
6729

>  <s_m_entry_name>
Schrodinger_fragment_339

>  <s_m_Source_Path>
/aloy/home/agimeno/Documents/Starting_Project/Part1_SMILES-to-signatures/1.2/Databases/Compounds/Fragment_library/Schrodinger

>  <s_m_Source_File>
schrodinger_fragment_collection_epik.maegz

>  <i_m_Source_File_Index>
360

>  <i_m_number_of_atoms>
26

>  <r_m_molecular_weight>
155.22155

>  <s_m_molecular_formula>
C8H15N2O1

>  <r_epik_Ionization_Penalty>
0.0133

>  <r_epik_Ionization_Penalty_Charging>
0.0133

>  <r_epik_Ionization_Penalty_Neutral>
0.0000

>  <r_epik_State_Penalty>
0.0133

>  <i_epik_Tot_Q>
1

>  <r_epik_Metal_State_Penalty>
0.0133

>  <b_epik_Metal_Only>
0

>  <s_canvas_Unique_SMILES_Stereo>
C[N@@H+](C1)CC(=O)N([C@H]12)CCC2

>  <s_m_subgroup_title>
schrodinger_fragment_collection_epik

>  <s_m_subgroupid>
schrodinger_fragment_collection_epik

>  <b_m_subgroup_collapsed>
0

$$$$
Schrodinger_fragment_239
 OpenBabel04062209313D
Schrodinger Suite 2020-2.
 18 19  0  0  1  0  0  0  0  0999 V2000
    3.0194    5.7540   -1.0537 C   0  0  0  0  0  0  0  0  0  0  0  0
    1.5252    5.8150   -0.7180 C   0  0  0  0  0  0  0  0  0  0  0  0
    1.4337    4.4460   -0.6676 N   0  0  0  0  0  0  0  0  0  0  0  0
    2.8539    4.2375   -0.9217 C   0  0  2  0  0  0  0  0  0  0  0  0
    0.5112    3.5514   -0.1497 C   0  0  0  0  0  0  0  0  0  0  0  0
    0.9163    2.4684    0.5439 C   0  0  0  0  0  0  0  0  0  0  0  0
    2.3707    2.0681    0.8268 C   0  0  0  0  0  0  0  0  0  0  0  0
    3.5444    3.4788    0.6018 S   0  0  0  0  0  0  0  0  0  0  0  0
    0.7002    6.6809   -0.5082 O   0  0  0  0  0  0  0  0  0  0  0  0
    4.8950    2.9556    0.3302 O   0  0  0  0  0  0  0  0  0  0  0  0
    3.3513    4.4239    1.7175 O   0  0  0  0  0  0  0  0  0  0  0  0
    3.2808    6.0693   -2.0630 H   0  0  0  0  0  0  0  0  0  0  0  0
    3.6907    6.1881   -0.3135 H   0  0  0  0  0  0  0  0  0  0  0  0
    3.0870    3.6496   -1.8101 H   0  0  0  0  0  0  0  0  0  0  0  0
   -0.5232    3.8030   -0.3471 H   0  0  0  0  0  0  0  0  0  0  0  0
    0.1653    1.7857    0.9165 H   0  0  0  0  0  0  0  0  0  0  0  0
    2.4861    1.7063    1.8463 H   0  0  0  0  0  0  0  0  0  0  0  0
    2.6735    1.2696    0.1524 H   0  0  0  0  0  0  0  0  0  0  0  0
  1  2  1  0  0  0  0
  1  4  1  0  0  0  0
  1 12  1  0  0  0  0
  1 13  1  0  0  0  0
  2  3  1  0  0  0  0
  2  9  2  0  0  0  0
  3  4  1  0  0  0  0
  3  5  1  0  0  0  0
  4  8  1  0  0  0  0
  4 14  1  6  0  0  0
  5  6  2  0  0  0  0
  5 15  1  0  0  0  0
  6  7  1  0  0  0  0
  6 16  1  0  0  0  0
  7  8  1  0  0  0  0
  7 17  1  0  0  0  0
  7 18  1  0  0  0  0
  8 10  2  0  0  0  0
  8 11  2  0  0  0  0
M  END
>  <s_m_entry_id>
6678

>  <s_m_entry_name>
Schrodinger_fragment_300

>  <s_m_Source_Path>
/aloy/home/agimeno/Documents/Starting_Project/Part1_SMILES-to-signatures/1.2/Databases/Compounds/Fragment_library/Schrodinger

>  <s_m_Source_File>
schrodinger_fragment_collection_epik.maegz

>  <i_m_Source_File_Index>
309

>  <i_m_number_of_atoms>
18

>  <r_m_molecular_weight>
173.19159

>  <s_m_molecular_formula>
C6H7N1O3S1

>  <r_epik_Ionization_Penalty>
0.0000

>  <r_epik_Ionization_Penalty_Charging>
0.0000

>  <r_epik_Ionization_Penalty_Neutral>
0.0000

>  <r_epik_State_Penalty>
0.0000

>  <i_epik_Tot_Q>
0

>  <r_epik_Metal_State_Penalty>
0.0000

>  <b_epik_Metal_Only>
0

>  <s_canvas_Unique_SMILES_Stereo>
C1C(=O)N([C@@H]12)C=CCS2(=O)=O

>  <s_m_subgroup_title>
schrodinger_fragment_collection_epik

>  <s_m_subgroupid>
schrodinger_fragment_collection_epik

>  <b_m_subgroup_collapsed>
0

$$$$
Schrodinger_fragment_213_b
 OpenBabel04062209313D
Schrodinger Suite 2020-2.
 11 11  0  0  1  0  0  0  0  0999 V2000
    1.2922    2.0951    0.0186 N   0  0  0  0  0  0  0  0  0  0  0  0
    1.2982    0.7071    0.0224 C   0  0  0  0  0  0  0  0  0  0  0  0
    2.4175    0.0637    0.0271 N   0  0  0  0  0  0  0  0  0  0  0  0
    3.6232    0.7768    0.0282 C   0  0  0  0  0  0  0  0  0  0  0  0
    3.6560    2.1268    0.0246 C   0  0  0  0  0  0  0  0  0  0  0  0
    2.3997    2.8699    0.0193 C   0  0  0  0  0  0  0  0  0  0  0  0
    2.3165    4.0987    0.0158 O   0  0  0  0  0  0  0  0  0  0  0  0
    0.1268    0.3226    0.0205 O   0  5  0  0  0  0  0  0  0  0  0  0
    0.3987    2.5673    0.0150 H   0  0  0  0  0  0  0  0  0  0  0  0
    4.5341    0.1932    0.0322 H   0  0  0  0  0  0  0  0  0  0  0  0
    4.5991    2.6556    0.0256 H   0  0  0  0  0  0  0  0  0  0  0  0
  1  2  1  0  0  0  0
  1  6  1  0  0  0  0
  1  9  1  0  0  0  0
  2  3  2  0  0  0  0
  2  8  1  0  0  0  0
  3  4  1  0  0  0  0
  4  5  2  0  0  0  0
  4 10  1  0  0  0  0
  5  6  1  0  0  0  0
  5 11  1  0  0  0  0
  6  7  2  0  0  0  0
M  CHG  1   8  -1
M  END
>  <s_m_entry_id>
6642

>  <s_m_entry_name>
Schrodinger_fragment_270

>  <s_m_Source_Path>
/aloy/home/agimeno/Documents/Starting_Project/Part1_SMILES-to-signatures/1.2/Databases/Compounds/Fragment_library/Schrodinger

>  <s_m_Source_File>
schrodinger_fragment_collection_epik.maegz

>  <i_m_Source_File_Index>
273

>  <i_m_number_of_atoms>
12

>  <r_m_molecular_weight>
112.08868

>  <s_m_molecular_formula>
C4H4N2O2

>  <r_epik_Ionization_Penalty>
2.8696

>  <r_epik_Ionization_Penalty_Charging>
0.0000

>  <r_epik_Ionization_Penalty_Neutral>
2.8696

>  <r_epik_State_Penalty>
2.8649

>  <i_epik_Tot_Q>
-1

>  <r_epik_Metal_State_Penalty>
0.4455

>  <b_epik_Metal_Only>
1

>  <s_canvas_Unique_SMILES_Stereo>
O=c1ccnc([O-])[nH]1

>  <s_m_subgroup_title>
schrodinger_fragment_collection_epik

>  <s_m_subgroupid>
schrodinger_fragment_collection_epik

>  <b_m_subgroup_collapsed>
0

$$$$
Schrodinger_fragment_243
 OpenBabel04062209313D
Schrodinger Suite 2020-2.
 26 27  0  0  1  0  0  0  0  0999 V2000
    2.2520   -0.9897    0.6340 C   0  0  1  0  0  0  0  0  0  0  0  0
    2.1706   -2.2678   -0.1505 C   0  0  1  0  0  0  0  0  0  0  0  0
    3.5417   -2.7295   -0.0824 N   0  0  0  0  0  0  0  0  0  0  0  0
    4.3442   -1.6427   -0.0884 C   0  0  0  0  0  0  0  0  0  0  0  0
    3.5200   -0.3500    0.0717 C   0  0  0  0  0  0  0  0  0  0  0  0
    0.0260   -1.6708    0.5850 C   0  0  0  0  0  0  0  0  0  0  0  0
    0.9747   -2.9102    0.5305 C   0  0  0  0  0  0  0  0  0  0  0  0
    5.5742   -1.6522   -0.1861 O   0  0  0  0  0  0  0  0  0  0  0  0
    3.9290   -4.1236   -0.2515 C   0  0  0  0  0  0  0  0  0  0  0  0
    0.6157    0.4781   -0.5675 C   0  0  0  0  0  0  0  0  0  0  0  0
    2.4329   -1.2041    1.6927 H   0  0  0  0  0  0  0  0  0  0  0  0
    1.9322   -2.0837   -1.2022 H   0  0  0  0  0  0  0  0  0  0  0  0
    3.3780    0.1165   -0.9027 H   0  0  0  0  0  0  0  0  0  0  0  0
    3.9807    0.3576    0.7604 H   0  0  0  0  0  0  0  0  0  0  0  0
   -0.6522   -1.6793   -0.2699 H   0  0  0  0  0  0  0  0  0  0  0  0
   -0.5934   -1.6902    1.4822 H   0  0  0  0  0  0  0  0  0  0  0  0
    0.5534   -3.7418   -0.0350 H   0  0  0  0  0  0  0  0  0  0  0  0
    1.2250   -3.2633    1.5323 H   0  0  0  0  0  0  0  0  0  0  0  0
    4.7253   -4.3879    0.4454 H   0  0  0  0  0  0  0  0  0  0  0  0
    4.2910   -4.2970   -1.2654 H   0  0  0  0  0  0  0  0  0  0  0  0
    3.0869   -4.7919   -0.0711 H   0  0  0  0  0  0  0  0  0  0  0  0
   -0.4200    0.8175   -0.5420 H   0  0  0  0  0  0  0  0  0  0  0  0
    0.7893    0.0005   -1.5320 H   0  0  0  0  0  0  0  0  0  0  0  0
    1.2504    1.3622   -0.5056 H   0  0  0  0  0  0  0  0  0  0  0  0
    0.8860   -0.4421    0.5611 N   0  3  2  0  0  0  0  0  0  0  0  0
    0.7145    0.0793    1.4092 H   0  0  0  0  0  0  0  0  0  0  0  0
  1  2  1  6  0  0  0
  1  5  1  0  0  0  0
  1 11  1  0  0  0  0
  2  3  1  0  0  0  0
  2  7  1  0  0  0  0
  2 12  1  6  0  0  0
  3  4  1  0  0  0  0
  3  9  1  0  0  0  0
  4  5  1  0  0  0  0
  4  8  2  0  0  0  0
  5 13  1  0  0  0  0
  5 14  1  0  0  0  0
  6  7  1  0  0  0  0
  6 15  1  0  0  0  0
  6 16  1  0  0  0  0
  6 25  1  0  0  0  0
  7 17  1  0  0  0  0
  7 18  1  0  0  0  0
  9 19  1  0  0  0  0
  9 20  1  0  0  0  0
  9 21  1  0  0  0  0
 10 22  1  0  0  0  0
 10 23  1  0  0  0  0
 10 24  1  0  0  0  0
 10 25  1  0  0  0  0
 25  1  1  6  0  0  0
 25 26  1  0  0  0  0
M  CHG  1  25   1
M  END
>  <s_m_entry_id>
6682

>  <s_m_entry_name>
Schrodinger_fragment_304

>  <s_m_Source_Path>
/aloy/home/agimeno/Documents/Starting_Project/Part1_SMILES-to-signatures/1.2/Databases/Compounds/Fragment_library/Schrodinger

>  <s_m_Source_File>
schrodinger_fragment_collection_epik.maegz

>  <i_m_Source_File_Index>
313

>  <i_m_number_of_atoms>
26

>  <r_m_molecular_weight>
155.22155

>  <s_m_molecular_formula>
C8H15N2O1

>  <r_epik_Ionization_Penalty>
0.0024

>  <r_epik_Ionization_Penalty_Charging>
0.0024

>  <r_epik_Ionization_Penalty_Neutral>
0.0000

>  <r_epik_State_Penalty>
0.0000

>  <i_epik_Tot_Q>
1

>  <r_epik_Metal_State_Penalty>
0.0000

>  <b_epik_Metal_Only>
0

>  <s_canvas_Unique_SMILES_Stereo>
CN1C(=O)C[C@H]([C@@H]12)[N@@H+](C)CC2

>  <s_m_subgroup_title>
schrodinger_fragment_collection_epik

>  <s_m_subgroupid>
schrodinger_fragment_collection_epik

>  <b_m_subgroup_collapsed>
0

$$$$
Schrodinger_fragment_137_b
 OpenBabel04062209313D
Schrodinger Suite 2020-2.
 13 14  0  0  1  0  0  0  0  0999 V2000
    2.1887    2.1560    0.0249 C   0  0  0  0  0  0  0  0  0  0  0  0
    2.2021    0.7675    0.0243 C   0  0  0  0  0  0  0  0  0  0  0  0
    3.3354    0.0507    0.0250 N   0  0  0  0  0  0  0  0  0  0  0  0
    4.5067    0.7340    0.0264 C   0  0  0  0  0  0  0  0  0  0  0  0
    4.5870    2.1413    0.0270 C   0  0  0  0  0  0  0  0  0  0  0  0
    3.3928    2.8862    0.0263 C   0  0  0  0  0  0  0  0  0  0  0  0
    0.9260    2.5494    0.0239 N   0  5  0  0  0  0  0  0  0  0  0  0
    0.1631    1.4305    0.0228 C   0  0  0  0  0  0  0  0  0  0  0  0
    0.9140    0.3059    0.0230 N   0  0  0  0  0  0  0  0  0  0  0  0
    5.4069    0.1375    0.0269 H   0  0  0  0  0  0  0  0  0  0  0  0
    5.5476    2.6367    0.0281 H   0  0  0  0  0  0  0  0  0  0  0  0
    3.4042    3.9665    0.0268 H   0  0  0  0  0  0  0  0  0  0  0  0
   -0.9228    1.5005    0.0218 H   0  0  0  0  0  0  0  0  0  0  0  0
  1  6  1  0  0  0  0
  1  7  1  0  0  0  0
  1  2  2  0  0  0  0
  2  9  1  0  0  0  0
  2  3  1  0  0  0  0
  3  4  2  0  0  0  0
  4 10  1  0  0  0  0
  4  5  1  0  0  0  0
  5 11  1  0  0  0  0
  5  6  2  0  0  0  0
  6 12  1  0  0  0  0
  7  8  1  0  0  0  0
  8 13  1  0  0  0  0
  8  9  2  0  0  0  0
M  CHG  1   7  -1
M  END
>  <s_m_entry_id>
6539

>  <s_m_entry_name>
Schrodinger_fragment_173

>  <s_m_Source_Path>
/aloy/home/agimeno/Documents/Starting_Project/Part1_SMILES-to-signatures/1.2/Databases/Compounds/Fragment_library/Schrodinger

>  <s_m_Source_File>
schrodinger_fragment_collection_epik.maegz

>  <i_m_Source_File_Index>
170

>  <i_m_number_of_atoms>
14

>  <r_m_molecular_weight>
119.12685

>  <s_m_molecular_formula>
C6H5N3

>  <r_epik_Ionization_Penalty>
9.4940

>  <r_epik_Ionization_Penalty_Charging>
3.1209

>  <r_epik_Ionization_Penalty_Neutral>
6.3732

>  <r_epik_State_Penalty>
3.4247

>  <i_epik_Tot_Q>
-1

>  <r_epik_Metal_State_Penalty>
0.1694

>  <b_epik_Metal_Only>
1

>  <s_canvas_Unique_SMILES_Stereo>
[n-]1cnc(c12)nccc2

>  <s_m_subgroup_title>
schrodinger_fragment_collection_epik

>  <s_m_subgroupid>
schrodinger_fragment_collection_epik

>  <b_m_subgroup_collapsed>
0

$$$$
Schrodinger_fragment_51
 OpenBabel04062209313D
Schrodinger Suite 2020-2.
 18 18  0  0  1  0  0  0  0  0999 V2000
  -13.0989   -0.0774    0.7767 C   0  0  0  0  0  0  0  0  0  0  0  0
  -13.2947   -1.3626    0.2311 C   0  0  0  0  0  0  0  0  0  0  0  0
  -12.3065   -1.9412   -0.5913 C   0  0  0  0  0  0  0  0  0  0  0  0
  -11.1210   -1.2319   -0.8733 C   0  0  0  0  0  0  0  0  0  0  0  0
  -10.9346    0.0590   -0.3388 C   0  0  0  0  0  0  0  0  0  0  0  0
  -11.9142    0.6338    0.4960 C   0  0  0  0  0  0  0  0  0  0  0  0
   -9.4064    0.9444   -0.6599 S   0  0  0  0  0  0  0  0  0  0  0  0
   -8.3021    0.4236    0.6893 C   0  0  0  0  0  0  0  0  0  0  0  0
   -8.8294    0.4570   -1.9261 O   0  0  0  0  0  0  0  0  0  0  0  0
   -9.6513    2.3902   -0.5072 O   0  0  0  0  0  0  0  0  0  0  0  0
  -13.8553    0.3618    1.4125 H   0  0  0  0  0  0  0  0  0  0  0  0
  -14.2034   -1.9081    0.4479 H   0  0  0  0  0  0  0  0  0  0  0  0
  -12.4560   -2.9298   -1.0035 H   0  0  0  0  0  0  0  0  0  0  0  0
  -10.3554   -1.6708   -1.4967 H   0  0  0  0  0  0  0  0  0  0  0  0
  -11.7528    1.6162    0.9159 H   0  0  0  0  0  0  0  0  0  0  0  0
   -7.3388    0.9149    0.5780 H   0  0  0  0  0  0  0  0  0  0  0  0
   -8.1758   -0.6559    0.6471 H   0  0  0  0  0  0  0  0  0  0  0  0
   -8.7515    0.6983    1.6410 H   0  0  0  0  0  0  0  0  0  0  0  0
  1  2  2  0  0  0  0
  1  6  1  0  0  0  0
  1 11  1  0  0  0  0
  2  3  1  0  0  0  0
  2 12  1  0  0  0  0
  3  4  2  0  0  0  0
  3 13  1  0  0  0  0
  4  5  1  0  0  0  0
  4 14  1  0  0  0  0
  5  6  2  0  0  0  0
  5  7  1  0  0  0  0
  6 15  1  0  0  0  0
  7  8  1  0  0  0  0
  7  9  2  0  0  0  0
  7 10  2  0  0  0  0
  8 16  1  0  0  0  0
  8 17  1  0  0  0  0
  8 18  1  0  0  0  0
M  END
>  <s_m_entry_id>
6427

>  <s_m_entry_name>
Schrodinger_fragment_52

>  <s_m_Source_Path>
/aloy/home/agimeno/Documents/Starting_Project/Part1_SMILES-to-signatures/1.2/Databases/Compounds/Fragment_library/Schrodinger

>  <s_m_Source_File>
schrodinger_fragment_collection_epik.maegz

>  <i_m_Source_File_Index>
58

>  <i_m_number_of_atoms>
18

>  <r_m_molecular_weight>
156.20461

>  <s_m_molecular_formula>
C7H8O2S1

>  <r_epik_Ionization_Penalty>
0.0000

>  <r_epik_Ionization_Penalty_Charging>
0.0000

>  <r_epik_Ionization_Penalty_Neutral>
0.0000

>  <r_epik_State_Penalty>
0.0000

>  <i_epik_Tot_Q>
0

>  <r_epik_Metal_State_Penalty>
0.0000

>  <b_epik_Metal_Only>
0

>  <s_canvas_Unique_SMILES_Stereo>
CS(=O)(=O)c1ccccc1

>  <s_m_subgroup_title>
schrodinger_fragment_collection_epik

>  <s_m_subgroupid>
schrodinger_fragment_collection_epik

>  <b_m_subgroup_collapsed>
0

$$$$
Schrodinger_fragment_413
 OpenBabel04062209313D
Schrodinger Suite 2020-2.
 23 24  0  0  1  0  0  0  0  0999 V2000
    1.4580   -2.2274   -0.0138 N   0  0  0  0  0  0  0  0  0  0  0  0
    1.4391   -3.5943    0.0036 C   0  0  0  0  0  0  0  0  0  0  0  0
    2.6256   -4.2686   -0.0265 N   0  0  0  0  0  0  0  0  0  0  0  0
    3.8874   -3.6080    0.0392 C   0  0  0  0  0  0  0  0  0  0  0  0
    3.8909   -2.2037    0.0387 C   0  0  0  0  0  0  0  0  0  0  0  0
    2.5878   -1.4742   -0.0262 C   0  0  0  0  0  0  0  0  0  0  0  0
    5.0485   -4.3132    0.1029 N   0  0  0  0  0  0  0  0  0  0  0  0
    6.2249   -3.6551    0.1626 C   0  0  0  0  0  0  0  0  0  0  0  0
    6.3094   -2.2561    0.1634 C   0  0  0  0  0  0  0  0  0  0  0  0
    5.1186   -1.5130    0.1004 C   0  0  0  0  0  0  0  0  0  0  0  0
    0.3612   -4.2077    0.0418 O   0  0  0  0  0  0  0  0  0  0  0  0
    2.5892   -0.2367   -0.0716 O   0  0  0  0  0  0  0  0  0  0  0  0
    0.1481   -1.5413   -0.0234 C   0  0  0  0  0  0  0  0  0  0  0  0
    2.6295   -5.7419   -0.0726 C   0  0  0  0  0  0  0  0  0  0  0  0
    7.1176   -4.2613    0.2108 H   0  0  0  0  0  0  0  0  0  0  0  0
    7.2709   -1.7636    0.2123 H   0  0  0  0  0  0  0  0  0  0  0  0
    5.1560   -0.4327    0.1013 H   0  0  0  0  0  0  0  0  0  0  0  0
    0.1975   -0.4519   -0.0419 H   0  0  0  0  0  0  0  0  0  0  0  0
   -0.4284   -1.8085    0.8640 H   0  0  0  0  0  0  0  0  0  0  0  0
   -0.4314   -1.8391   -0.8991 H   0  0  0  0  0  0  0  0  0  0  0  0
    3.3765   -6.1064   -0.7787 H   0  0  0  0  0  0  0  0  0  0  0  0
    1.6833   -6.1846   -0.3863 H   0  0  0  0  0  0  0  0  0  0  0  0
    2.8739   -6.1433    0.9114 H   0  0  0  0  0  0  0  0  0  0  0  0
  1  2  1  0  0  0  0
  1  6  1  0  0  0  0
  1 13  1  0  0  0  0
  2  3  1  0  0  0  0
  2 11  2  0  0  0  0
  3  4  1  0  0  0  0
  3 14  1  0  0  0  0
  4  5  2  0  0  0  0
  4  7  1  0  0  0  0
  5  6  1  0  0  0  0
  5 10  1  0  0  0  0
  6 12  2  0  0  0  0
  7  8  2  0  0  0  0
  8  9  1  0  0  0  0
  8 15  1  0  0  0  0
  9 10  2  0  0  0  0
  9 16  1  0  0  0  0
 10 17  1  0  0  0  0
 13 18  1  0  0  0  0
 13 19  1  0  0  0  0
 13 20  1  0  0  0  0
 14 21  1  0  0  0  0
 14 22  1  0  0  0  0
 14 23  1  0  0  0  0
M  END
>  <s_m_entry_id>
6982

>  <s_m_entry_name>
Schrodinger_fragment_515

>  <s_m_Source_Path>
/aloy/home/agimeno/Documents/Starting_Project/Part1_SMILES-to-signatures/1.2/Databases/Compounds/Fragment_library/Schrodinger

>  <s_m_Source_File>
schrodinger_fragment_collection_epik.maegz

>  <i_m_Source_File_Index>
613

>  <i_m_number_of_atoms>
23

>  <r_m_molecular_weight>
191.19098

>  <s_m_molecular_formula>
C9H9N3O2

>  <r_epik_Ionization_Penalty>
0.0000

>  <r_epik_Ionization_Penalty_Charging>
0.0000

>  <r_epik_Ionization_Penalty_Neutral>
0.0000

>  <r_epik_State_Penalty>
0.0000

>  <i_epik_Tot_Q>
0

>  <r_epik_Metal_State_Penalty>
0.0000

>  <b_epik_Metal_Only>
0

>  <s_canvas_Unique_SMILES_Stereo>
O=c1n(C)c(=O)n(C)c(c12)nccc2

>  <s_m_subgroup_title>
schrodinger_fragment_collection_epik

>  <s_m_subgroupid>
schrodinger_fragment_collection_epik

>  <b_m_subgroup_collapsed>
0

$$$$
Schrodinger_fragment_299_a
 OpenBabel04062209313D
Schrodinger Suite 2020-2.
 16 17  0  0  1  0  0  0  0  0999 V2000
    2.3813   -2.2126   -0.0035 C   0  0  0  0  0  0  0  0  0  0  0  0
    2.4772   -3.6186    0.0308 C   0  0  0  0  0  0  0  0  0  0  0  0
    3.6225   -4.3523    0.0859 N   0  0  0  0  0  0  0  0  0  0  0  0
    4.6976   -3.5775    0.1053 C   0  0  0  0  0  0  0  0  0  0  0  0
    4.7428   -2.2402    0.0772 N   0  0  0  0  0  0  0  0  0  0  0  0
    3.6048   -1.5390    0.0231 C   0  0  0  0  0  0  0  0  0  0  0  0
    0.9764   -1.9239   -0.0575 C   0  0  0  0  0  0  0  0  0  0  0  0
    0.2608   -3.0268   -0.0575 N   0  0  0  0  0  0  0  0  0  0  0  0
    1.1579   -4.0532   -0.0045 N   0  0  0  0  0  0  0  0  0  0  0  0
    3.7409   -0.1892   -0.0022 O   0  5  0  0  0  0  0  0  0  0  0  0
    0.6667   -5.4174    0.0086 C   0  0  0  0  0  0  0  0  0  0  0  0
    5.6496   -4.0863    0.1489 H   0  0  0  0  0  0  0  0  0  0  0  0
    0.4876   -0.9596   -0.0953 H   0  0  0  0  0  0  0  0  0  0  0  0
   -0.4229   -5.4421   -0.0252 H   0  0  0  0  0  0  0  0  0  0  0  0
    1.0064   -5.9159    0.9165 H   0  0  0  0  0  0  0  0  0  0  0  0
    1.0622   -5.9530   -0.8545 H   0  0  0  0  0  0  0  0  0  0  0  0
  1  2  2  0  0  0  0
  1  6  1  0  0  0  0
  1  7  1  0  0  0  0
  2  3  1  0  0  0  0
  2  9  1  0  0  0  0
  3  4  2  0  0  0  0
  4  5  1  0  0  0  0
  4 12  1  0  0  0  0
  5  6  2  0  0  0  0
  6 10  1  0  0  0  0
  7  8  2  0  0  0  0
  7 13  1  0  0  0  0
  8  9  1  0  0  0  0
  9 11  1  0  0  0  0
 11 14  1  0  0  0  0
 11 15  1  0  0  0  0
 11 16  1  0  0  0  0
M  CHG  1  10  -1
M  END
>  <s_m_entry_id>
6772

>  <s_m_entry_name>
Schrodinger_fragment_361

>  <s_m_Source_Path>
/aloy/home/agimeno/Documents/Starting_Project/Part1_SMILES-to-signatures/1.2/Databases/Compounds/Fragment_library/Schrodinger

>  <s_m_Source_File>
schrodinger_fragment_collection_epik.maegz

>  <i_m_Source_File_Index>
403

>  <i_m_number_of_atoms>
17

>  <r_m_molecular_weight>
150.14092

>  <s_m_molecular_formula>
C6H6N4O1

>  <r_epik_Ionization_Penalty>
1.6585

>  <r_epik_Ionization_Penalty_Charging>
0.0000

>  <r_epik_Ionization_Penalty_Neutral>
1.6585

>  <r_epik_State_Penalty>
1.6585

>  <i_epik_Tot_Q>
-1

>  <r_epik_Metal_State_Penalty>
0.3968

>  <b_epik_Metal_Only>
0

>  <s_canvas_Unique_SMILES_Stereo>
c1nn(C)c(c12)ncnc2[O-]

>  <s_m_subgroup_title>
schrodinger_fragment_collection_epik

>  <s_m_subgroupid>
schrodinger_fragment_collection_epik

>  <b_m_subgroup_collapsed>
0

$$$$
Schrodinger_fragment_399
 OpenBabel04062209313D
Schrodinger Suite 2020-2.
 31 32  0  0  1  0  0  0  0  0999 V2000
    2.4616   -2.3233    0.2412 C   0  0  1  0  0  0  0  0  0  0  0  0
    3.7767   -2.8671   -0.3943 C   0  0  0  0  0  0  0  0  0  0  0  0
    4.9692   -2.1803    0.1140 N   0  0  0  0  0  0  0  0  0  0  0  0
    4.9623   -0.8395    0.2377 C   0  0  0  0  0  0  0  0  0  0  0  0
    3.6679   -0.1293   -0.1788 C   0  0  0  0  0  0  0  0  0  0  0  0
    1.2249   -0.1942   -0.2819 C   0  0  0  0  0  0  0  0  0  0  0  0
    0.0299   -0.8419    0.4172 C   0  0  0  0  0  0  0  0  0  0  0  0
   -0.0457   -2.3537    0.1445 C   0  0  0  0  0  0  0  0  0  0  0  0
    5.9202   -0.1866    0.6595 O   0  0  0  0  0  0  0  0  0  0  0  0
    1.1931   -4.4106   -0.3193 C   0  0  0  0  0  0  0  0  0  0  0  0
    6.1340   -2.9975    0.4616 C   0  0  0  0  0  0  0  0  0  0  0  0
    2.4671   -2.6116    1.2949 H   0  0  0  0  0  0  0  0  0  0  0  0
    3.8738   -3.9335   -0.1919 H   0  0  0  0  0  0  0  0  0  0  0  0
    3.7517   -2.7568   -1.4797 H   0  0  0  0  0  0  0  0  0  0  0  0
    3.6658    0.8845    0.2242 H   0  0  0  0  0  0  0  0  0  0  0  0
    3.6880   -0.0347   -1.2659 H   0  0  0  0  0  0  0  0  0  0  0  0
    1.1563   -0.2992   -1.3667 H   0  0  0  0  0  0  0  0  0  0  0  0
    1.2419    0.8756   -0.0656 H   0  0  0  0  0  0  0  0  0  0  0  0
    0.1077   -0.6692    1.4919 H   0  0  0  0  0  0  0  0  0  0  0  0
   -0.8985   -0.3613    0.1062 H   0  0  0  0  0  0  0  0  0  0  0  0
   -0.3471   -2.8619    1.0619 H   0  0  0  0  0  0  0  0  0  0  0  0
   -0.8277   -2.5562   -0.5887 H   0  0  0  0  0  0  0  0  0  0  0  0
    0.2481   -4.7856   -0.7136 H   0  0  0  0  0  0  0  0  0  0  0  0
    1.2974   -4.7787    0.7019 H   0  0  0  0  0  0  0  0  0  0  0  0
    1.9784   -4.8568   -0.9283 H   0  0  0  0  0  0  0  0  0  0  0  0
    7.0691   -2.4920    0.2143 H   0  0  0  0  0  0  0  0  0  0  0  0
    6.1368   -3.9476   -0.0735 H   0  0  0  0  0  0  0  0  0  0  0  0
    6.1387   -3.2103    1.5310 H   0  0  0  0  0  0  0  0  0  0  0  0
    2.4306   -0.8364    0.2379 N   0  0  1  0  0  0  0  0  0  0  0  0
    1.2308   -2.9278   -0.3640 N   0  3  2  0  0  0  0  0  0  0  0  0
    1.2595   -2.6938   -1.3450 H   0  0  0  0  0  0  0  0  0  0  0  0
  1  2  1  0  0  0  0
  1 12  1  0  0  0  0
  1 29  1  6  0  0  0
  2  3  1  0  0  0  0
  2 13  1  0  0  0  0
  2 14  1  0  0  0  0
  3  4  1  0  0  0  0
  3 11  1  0  0  0  0
  4  5  1  0  0  0  0
  4  9  2  0  0  0  0
  5 15  1  0  0  0  0
  5 16  1  0  0  0  0
  6  7  1  0  0  0  0
  6 17  1  0  0  0  0
  6 18  1  0  0  0  0
  7  8  1  0  0  0  0
  7 19  1  0  0  0  0
  7 20  1  0  0  0  0
  8 21  1  0  0  0  0
  8 22  1  0  0  0  0
  8 30  1  0  0  0  0
 10 23  1  0  0  0  0
 10 24  1  0  0  0  0
 10 25  1  0  0  0  0
 10 30  1  0  0  0  0
 11 26  1  0  0  0  0
 11 27  1  0  0  0  0
 11 28  1  0  0  0  0
 29  6  1  6  0  0  0
 29  5  1  0  0  0  0
 30  1  1  1  0  0  0
 30 31  1  0  0  0  0
M  CHG  1  30   1
M  END
>  <s_m_entry_id>
6960

>  <s_m_entry_name>
Schrodinger_fragment_495

>  <s_m_Source_Path>
/aloy/home/agimeno/Documents/Starting_Project/Part1_SMILES-to-signatures/1.2/Databases/Compounds/Fragment_library/Schrodinger

>  <s_m_Source_File>
schrodinger_fragment_collection_epik.maegz

>  <i_m_Source_File_Index>
591

>  <i_m_number_of_atoms>
32

>  <r_m_molecular_weight>
185.27128

>  <s_m_molecular_formula>
C9H19N3O1

>  <r_epik_Ionization_Penalty>
0.0054

>  <r_epik_Ionization_Penalty_Charging>
0.0032

>  <r_epik_Ionization_Penalty_Neutral>
0.0022

>  <r_epik_State_Penalty>
0.1490

>  <i_epik_Tot_Q>
1

>  <r_epik_Metal_State_Penalty>
0.1490

>  <b_epik_Metal_Only>
0

>  <s_canvas_Unique_SMILES_Stereo>
CN(C1)C(=O)CN([C@H]12)CCC[N@@H+]2C

>  <s_m_subgroup_title>
schrodinger_fragment_collection_epik

>  <s_m_subgroupid>
schrodinger_fragment_collection_epik

>  <b_m_subgroup_collapsed>
0

$$$$
Schrodinger_fragment_276
 OpenBabel04062209313D
Schrodinger Suite 2020-2.
 26 27  0  0  1  0  0  0  0  0999 V2000
    2.3551   -1.4405    0.2138 C   0  0  1  0  0  0  0  0  0  0  0  0
    2.3832   -2.8946    0.0766 N   0  0  0  0  0  0  0  0  0  0  0  0
    3.4759   -3.6203   -0.2423 C   0  0  0  0  0  0  0  0  0  0  0  0
    4.7888   -2.8774   -0.5537 C   0  0  0  0  0  0  0  0  0  0  0  0
    3.5008   -0.7506   -0.5519 C   0  0  0  0  0  0  0  0  0  0  0  0
    0.9365   -1.0441   -0.1991 C   0  0  0  0  0  0  0  0  0  0  0  0
    0.0963   -2.2245    0.2858 C   0  0  0  0  0  0  0  0  0  0  0  0
    1.0291   -3.4391    0.1745 C   0  0  0  0  0  0  0  0  0  0  0  0
    3.4456   -4.8516   -0.3300 O   0  0  0  0  0  0  0  0  0  0  0  0
    2.4654   -1.2268    1.2785 H   0  0  0  0  0  0  0  0  0  0  0  0
    5.3297   -1.0972    1.0881 C   0  0  0  0  0  0  0  0  0  0  0  0
    5.6203   -3.3776   -0.0564 H   0  0  0  0  0  0  0  0  0  0  0  0
    4.9643   -2.9931   -1.6232 H   0  0  0  0  0  0  0  0  0  0  0  0
    3.3205   -0.8107   -1.6263 H   0  0  0  0  0  0  0  0  0  0  0  0
    3.5479    0.3118   -0.3090 H   0  0  0  0  0  0  0  0  0  0  0  0
    0.6188   -0.0935    0.2316 H   0  0  0  0  0  0  0  0  0  0  0  0
    0.8635   -0.9611   -1.2849 H   0  0  0  0  0  0  0  0  0  0  0  0
   -0.1825   -2.0720    1.3298 H   0  0  0  0  0  0  0  0  0  0  0  0
   -0.8251   -2.3475   -0.2852 H   0  0  0  0  0  0  0  0  0  0  0  0
    0.7998   -4.0138   -0.7249 H   0  0  0  0  0  0  0  0  0  0  0  0
    0.9296   -4.1061    1.0324 H   0  0  0  0  0  0  0  0  0  0  0  0
    5.3582   -0.0197    1.2514 H   0  0  0  0  0  0  0  0  0  0  0  0
    6.3497   -1.4674    1.1928 H   0  0  0  0  0  0  0  0  0  0  0  0
    4.7307   -1.5449    1.8810 H   0  0  0  0  0  0  0  0  0  0  0  0
    4.7928   -1.4173   -0.2559 N   0  3  1  0  0  0  0  0  0  0  0  0
    5.4596   -1.0114   -0.8951 H   0  0  0  0  0  0  0  0  0  0  0  0
  1  2  1  0  0  0  0
  1  5  1  0  0  0  0
  1  6  1  0  0  0  0
  1 10  1  1  0  0  0
  2  3  1  0  0  0  0
  2  8  1  0  0  0  0
  3  4  1  0  0  0  0
  3  9  2  0  0  0  0
  4 12  1  0  0  0  0
  4 13  1  0  0  0  0
  4 25  1  0  0  0  0
  5 14  1  0  0  0  0
  5 15  1  0  0  0  0
  5 25  1  0  0  0  0
  6  7  1  0  0  0  0
  6 16  1  0  0  0  0
  6 17  1  0  0  0  0
  7  8  1  0  0  0  0
  7 18  1  0  0  0  0
  7 19  1  0  0  0  0
  8 20  1  0  0  0  0
  8 21  1  0  0  0  0
 11 22  1  0  0  0  0
 11 23  1  0  0  0  0
 11 24  1  0  0  0  0
 11 25  1  0  0  0  0
 25 26  1  6  0  0  0
M  CHG  1  25   1
M  END
>  <s_m_entry_id>
6726

>  <s_m_entry_name>
Schrodinger_fragment_337

>  <s_m_Source_Path>
/aloy/home/agimeno/Documents/Starting_Project/Part1_SMILES-to-signatures/1.2/Databases/Compounds/Fragment_library/Schrodinger

>  <s_m_Source_File>
schrodinger_fragment_collection_epik.maegz

>  <i_m_Source_File_Index>
357

>  <i_m_number_of_atoms>
26

>  <r_m_molecular_weight>
155.22155

>  <s_m_molecular_formula>
C8H15N2O1

>  <r_epik_Ionization_Penalty>
0.0133

>  <r_epik_Ionization_Penalty_Charging>
0.0133

>  <r_epik_Ionization_Penalty_Neutral>
0.0000

>  <r_epik_State_Penalty>
0.0133

>  <i_epik_Tot_Q>
1

>  <r_epik_Metal_State_Penalty>
0.0133

>  <b_epik_Metal_Only>
0

>  <s_canvas_Unique_SMILES_Stereo>
C[N@H+](C1)CC(=O)N([C@@H]12)CCC2

>  <s_m_subgroup_title>
schrodinger_fragment_collection_epik

>  <s_m_subgroupid>
schrodinger_fragment_collection_epik

>  <b_m_subgroup_collapsed>
0

$$$$
Schrodinger_fragment_114
 OpenBabel04062209313D
Schrodinger Suite 2020-2.
 19 20  0  0  1  0  0  0  0  0999 V2000
    4.1599   -2.6454    0.0246 C   0  0  0  0  0  0  0  0  0  0  0  0
    4.2038   -4.0717    0.0243 C   0  0  0  0  0  0  0  0  0  0  0  0
    5.4406   -4.7436    0.0271 C   0  0  0  0  0  0  0  0  0  0  0  0
    6.5970   -4.0449    0.0300 N   0  3  0  0  0  0  0  0  0  0  0  0
    6.6178   -2.6923    0.0304 C   0  0  0  0  0  0  0  0  0  0  0  0
    5.4035   -1.9672    0.0277 C   0  0  0  0  0  0  0  0  0  0  0  0
    2.7839   -2.2520    0.0214 C   0  0  0  0  0  0  0  0  0  0  0  0
    2.0422   -3.4055    0.0193 C   0  0  0  0  0  0  0  0  0  0  0  0
    2.8878   -4.5106    0.0210 N   0  0  0  0  0  0  0  0  0  0  0  0
    2.4563   -5.8959    0.0196 C   0  0  0  0  0  0  0  0  0  0  0  0
    5.5329   -5.8201    0.0270 H   0  0  0  0  0  0  0  0  0  0  0  0
    7.5983   -2.2306    0.0329 H   0  0  0  0  0  0  0  0  0  0  0  0
    5.4222   -0.8864    0.0280 H   0  0  0  0  0  0  0  0  0  0  0  0
    2.4084   -1.2380    0.0207 H   0  0  0  0  0  0  0  0  0  0  0  0
    0.9658   -3.5279    0.0167 H   0  0  0  0  0  0  0  0  0  0  0  0
    1.3674   -5.9583    0.0170 H   0  0  0  0  0  0  0  0  0  0  0  0
    2.8342   -6.4022    0.9085 H   0  0  0  0  0  0  0  0  0  0  0  0
    2.8385   -6.4017   -0.8677 H   0  0  0  0  0  0  0  0  0  0  0  0
    7.4868   -4.5548    0.0321 H   0  0  0  0  0  0  0  0  0  0  0  0
  1  2  2  0  0  0  0
  1  6  1  0  0  0  0
  1  7  1  0  0  0  0
  2  3  1  0  0  0  0
  2  9  1  0  0  0  0
  3  4  2  0  0  0  0
  3 11  1  0  0  0  0
  4  5  1  0  0  0  0
  4 19  1  0  0  0  0
  5  6  2  0  0  0  0
  5 12  1  0  0  0  0
  6 13  1  0  0  0  0
  7  8  2  0  0  0  0
  7 14  1  0  0  0  0
  8  9  1  0  0  0  0
  8 15  1  0  0  0  0
  9 10  1  0  0  0  0
 10 16  1  0  0  0  0
 10 17  1  0  0  0  0
 10 18  1  0  0  0  0
M  CHG  1   4   1
M  END
>  <s_m_entry_id>
6508

>  <s_m_entry_name>
Schrodinger_fragment_130

>  <s_m_Source_Path>
/aloy/home/agimeno/Documents/Starting_Project/Part1_SMILES-to-signatures/1.2/Databases/Compounds/Fragment_library/Schrodinger

>  <s_m_Source_File>
schrodinger_fragment_collection_epik.maegz

>  <i_m_Source_File_Index>
139

>  <i_m_number_of_atoms>
18

>  <r_m_molecular_weight>
132.16636

>  <s_m_molecular_formula>
C8H8N2

>  <r_epik_Ionization_Penalty>
0.0415

>  <r_epik_Ionization_Penalty_Charging>
0.0415

>  <r_epik_Ionization_Penalty_Neutral>
0.0000

>  <r_epik_State_Penalty>
0.0415

>  <i_epik_Tot_Q>
1

>  <r_epik_Metal_State_Penalty>
2.5472

>  <b_epik_Metal_Only>
0

>  <s_canvas_Unique_SMILES_Stereo>
c1cn(C)c(c12)c[nH+]cc2

>  <s_m_subgroup_title>
schrodinger_fragment_collection_epik

>  <s_m_subgroupid>
schrodinger_fragment_collection_epik

>  <b_m_subgroup_collapsed>
0

$$$$
Schrodinger_fragment_393_a
 OpenBabel04062209313D
Schrodinger Suite 2020-2.
 28 29  0  0  1  0  0  0  0  0999 V2000
    2.3947   -2.3053    0.4201 C   0  0  1  0  0  0  0  0  0  0  0  0
    3.7610   -2.9848    0.1030 C   0  0  0  0  0  0  0  0  0  0  0  0
    4.9020   -2.1791    0.5237 N   0  0  0  0  0  0  0  0  0  0  0  0
    4.9525   -0.8687    0.2818 C   0  0  0  0  0  0  0  0  0  0  0  0
    3.6859   -0.2427   -0.2996 C   0  0  0  0  0  0  0  0  0  0  0  0
    1.2292   -0.1520   -0.1689 C   0  0  0  0  0  0  0  0  0  0  0  0
   -0.0160   -0.8580    0.3773 C   0  0  0  0  0  0  0  0  0  0  0  0
   -0.0176   -2.3638    0.0562 C   0  0  0  0  0  0  0  0  0  0  0  0
    5.9421   -0.1872    0.5456 O   0  0  0  0  0  0  0  0  0  0  0  0
    1.2301   -4.3126   -0.4134 C   0  0  0  0  0  0  0  0  0  0  0  0
    2.1622   -2.5287    1.4637 H   0  0  0  0  0  0  0  0  0  0  0  0
    3.8241   -3.9641    0.5791 H   0  0  0  0  0  0  0  0  0  0  0  0
    3.8591   -3.1518   -0.9715 H   0  0  0  0  0  0  0  0  0  0  0  0
    5.7029   -2.6447    0.9305 H   0  0  0  0  0  0  0  0  0  0  0  0
    3.7176    0.8381   -0.1574 H   0  0  0  0  0  0  0  0  0  0  0  0
    3.6667   -0.4262   -1.3746 H   0  0  0  0  0  0  0  0  0  0  0  0
    1.2160   -0.1909   -1.2592 H   0  0  0  0  0  0  0  0  0  0  0  0
    1.2235    0.9025    0.1087 H   0  0  0  0  0  0  0  0  0  0  0  0
   -0.0648   -0.7183    1.4582 H   0  0  0  0  0  0  0  0  0  0  0  0
   -0.9177   -0.3921   -0.0219 H   0  0  0  0  0  0  0  0  0  0  0  0
   -0.3446   -2.9102    0.9439 H   0  0  0  0  0  0  0  0  0  0  0  0
   -0.7577   -2.5718   -0.7191 H   0  0  0  0  0  0  0  0  0  0  0  0
    0.3687   -4.6592   -0.9871 H   0  0  0  0  0  0  0  0  0  0  0  0
    1.1428   -4.7204    0.5956 H   0  0  0  0  0  0  0  0  0  0  0  0
    2.1086   -4.7566   -0.8825 H   0  0  0  0  0  0  0  0  0  0  0  0
    2.4637   -0.8025    0.3353 N   0  3  1  0  0  0  0  0  0  0  0  0
    2.5583   -0.5211    1.3001 H   0  0  0  0  0  0  0  0  0  0  0  0
    1.2921   -2.8489   -0.4037 N   0  0  0  0  0  0  0  0  0  0  0  0
  1  2  1  0  0  0  0
  1 11  1  0  0  0  0
  1 26  1  6  0  0  0
  1 28  1  0  0  0  0
  2  3  1  0  0  0  0
  2 12  1  0  0  0  0
  2 13  1  0  0  0  0
  3  4  1  0  0  0  0
  3 14  1  0  0  0  0
  4  5  1  0  0  0  0
  4  9  2  0  0  0  0
  5 15  1  0  0  0  0
  5 16  1  0  0  0  0
  5 26  1  0  0  0  0
  6  7  1  0  0  0  0
  6 17  1  0  0  0  0
  6 18  1  0  0  0  0
  6 26  1  0  0  0  0
  7  8  1  0  0  0  0
  7 19  1  0  0  0  0
  7 20  1  0  0  0  0
  8 21  1  0  0  0  0
  8 22  1  0  0  0  0
  8 28  1  0  0  0  0
 10 23  1  0  0  0  0
 10 24  1  0  0  0  0
 10 25  1  0  0  0  0
 10 28  1  0  0  0  0
 26 27  1  1  0  0  0
M  CHG  1  26   1
M  END
>  <s_m_entry_id>
6945

>  <s_m_entry_name>
Schrodinger_fragment_487

>  <s_m_Source_Path>
/aloy/home/agimeno/Documents/Starting_Project/Part1_SMILES-to-signatures/1.2/Databases/Compounds/Fragment_library/Schrodinger

>  <s_m_Source_File>
schrodinger_fragment_collection_epik.maegz

>  <i_m_Source_File_Index>
576

>  <i_m_number_of_atoms>
29

>  <r_m_molecular_weight>
171.24419

>  <s_m_molecular_formula>
C8H17N3O1

>  <r_epik_Ionization_Penalty>
0.0185

>  <r_epik_Ionization_Penalty_Charging>
0.0161

>  <r_epik_Ionization_Penalty_Neutral>
0.0024

>  <r_epik_State_Penalty>
0.9254

>  <i_epik_Tot_Q>
1

>  <r_epik_Metal_State_Penalty>
1.8764

>  <b_epik_Metal_Only>
0

>  <s_canvas_Unique_SMILES_Stereo>
CN1CCC[N@@H+]([C@@H]12)CC(=O)NC2

>  <s_m_subgroup_title>
schrodinger_fragment_collection_epik

>  <s_m_subgroupid>
schrodinger_fragment_collection_epik

>  <b_m_subgroup_collapsed>
0

$$$$
Schrodinger_fragment_171
 OpenBabel04062209313D
Schrodinger Suite 2020-2.
 10  9  0  0  1  0  0  0  0  0999 V2000
    2.4115   -2.1767    0.0047 C   0  0  0  0  0  0  0  0  0  0  0  0
    3.6932   -1.3371   -0.0100 C   0  0  0  0  0  0  0  0  0  0  0  0
    3.6524   -0.1696   -0.4517 O   0  0  0  0  0  0  0  0  0  0  0  0
    2.3572   -2.7763   -0.9043 H   0  0  0  0  0  0  0  0  0  0  0  0
    2.3973   -2.8605    0.8543 H   0  0  0  0  0  0  0  0  0  0  0  0
    0.3860   -1.8208   -0.0401 H   0  0  0  0  0  0  0  0  0  0  0  0
    1.3239   -0.6108   -0.6570 H   0  0  0  0  0  0  0  0  0  0  0  0
    1.2351   -1.2969    0.0732 N   0  3  0  0  0  0  0  0  0  0  0  0
    1.2292   -0.8188    0.9568 H   0  0  0  0  0  0  0  0  0  0  0  0
    4.7474   -1.8590    0.4062 O   0  5  0  0  0  0  0  0  0  0  0  0
  1  2  1  0  0  0  0
  1  4  1  0  0  0  0
  1  5  1  0  0  0  0
  1  8  1  0  0  0  0
  2  3  2  0  0  0  0
  2 10  1  0  0  0  0
  6  8  1  0  0  0  0
  7  8  1  0  0  0  0
  8  9  1  0  0  0  0
M  CHG  2   8   1  10  -1
M  END
>  <s_m_entry_id>
6584

>  <s_m_entry_name>
Schrodinger_fragment_226

>  <s_m_Source_Path>
/aloy/home/agimeno/Documents/Starting_Project/Part1_SMILES-to-signatures/1.2/Databases/Compounds/Fragment_library/Schrodinger

>  <s_m_Source_File>
schrodinger_fragment_collection_epik.maegz

>  <i_m_Source_File_Index>
215

>  <i_m_number_of_atoms>
10

>  <r_m_molecular_weight>
75.06765

>  <s_m_molecular_formula>
C2H5N1O2

>  <r_epik_Ionization_Penalty>
0.0311

>  <r_epik_Ionization_Penalty_Charging>
0.0311

>  <r_epik_Ionization_Penalty_Neutral>
0.0000

>  <r_epik_State_Penalty>
0.0104

>  <i_epik_Tot_Q>
0

>  <r_epik_Metal_State_Penalty>
0.0104

>  <b_epik_Metal_Only>
0

>  <s_canvas_Unique_SMILES_Stereo>
[O-]C(=O)C[NH3+]

>  <s_m_subgroup_title>
schrodinger_fragment_collection_epik

>  <s_m_subgroupid>
schrodinger_fragment_collection_epik

>  <b_m_subgroup_collapsed>
0

$$$$
Schrodinger_fragment_407
 OpenBabel04062209313D
Schrodinger Suite 2020-2.
 28 29  0  0  1  0  0  0  0  0999 V2000
    2.4277   -2.2309    0.4002 C   0  0  1  0  0  0  0  0  0  0  0  0
    3.6882   -3.0026   -0.0411 C   0  0  0  0  0  0  0  0  0  0  0  0
    4.9299   -2.2238    0.0633 N   0  0  0  0  0  0  0  0  0  0  0  0
    4.9682   -0.8805    0.2220 C   0  0  0  0  0  0  0  0  0  0  0  0
    3.6499   -0.0995    0.3244 C   0  0  0  0  0  0  0  0  0  0  0  0
    1.2007   -0.1009    0.0927 C   0  0  0  0  0  0  0  0  0  0  0  0
   -0.0167   -0.9237   -0.3501 C   0  0  0  0  0  0  0  0  0  0  0  0
    0.0023   -2.2966    0.3321 C   0  0  0  0  0  0  0  0  0  0  0  0
    6.0312   -0.2564    0.2919 O   0  0  0  0  0  0  0  0  0  0  0  0
    6.1679   -3.0008   -0.0433 C   0  0  0  0  0  0  0  0  0  0  0  0
    2.4168   -2.1594    1.4904 H   0  0  0  0  0  0  0  0  0  0  0  0
    3.7743   -3.9134    0.5538 H   0  0  0  0  0  0  0  0  0  0  0  0
    3.5937   -3.3203   -1.0809 H   0  0  0  0  0  0  0  0  0  0  0  0
    3.5164    0.1775    1.3706 H   0  0  0  0  0  0  0  0  0  0  0  0
    3.7434    0.8284   -0.2404 H   0  0  0  0  0  0  0  0  0  0  0  0
    1.2244    0.8511   -0.4386 H   0  0  0  0  0  0  0  0  0  0  0  0
    1.1135    0.1323    1.1549 H   0  0  0  0  0  0  0  0  0  0  0  0
   -0.9334   -0.3931   -0.0893 H   0  0  0  0  0  0  0  0  0  0  0  0
   -0.0284   -1.0358   -1.4354 H   0  0  0  0  0  0  0  0  0  0  0  0
   -0.0754   -2.1913    1.4163 H   0  0  0  0  0  0  0  0  0  0  0  0
   -0.8537   -2.8923    0.0102 H   0  0  0  0  0  0  0  0  0  0  0  0
    6.8041   -2.6124   -0.8404 H   0  0  0  0  0  0  0  0  0  0  0  0
    5.9779   -4.0520   -0.2641 H   0  0  0  0  0  0  0  0  0  0  0  0
    6.7303   -2.9549    0.8906 H   0  0  0  0  0  0  0  0  0  0  0  0
    2.4600   -0.8477   -0.1494 N   0  3  2  0  0  0  0  0  0  0  0  0
    2.5723   -0.9257   -1.1492 H   0  0  0  0  0  0  0  0  0  0  0  0
    1.2398   -2.9844   -0.0225 N   0  0  0  0  0  0  0  0  0  0  0  0
    1.2679   -3.1923   -1.0171 H   0  0  0  0  0  0  0  0  0  0  0  0
  1  2  1  0  0  0  0
  1 11  1  0  0  0  0
  1 25  1  6  0  0  0
  1 27  1  0  0  0  0
  2  3  1  0  0  0  0
  2 12  1  0  0  0  0
  2 13  1  0  0  0  0
  3  4  1  0  0  0  0
  3 10  1  0  0  0  0
  4  5  1  0  0  0  0
  4  9  2  0  0  0  0
  5 14  1  0  0  0  0
  5 15  1  0  0  0  0
  5 25  1  0  0  0  0
  6  7  1  0  0  0  0
  6 16  1  0  0  0  0
  6 17  1  0  0  0  0
  6 25  1  0  0  0  0
  7  8  1  0  0  0  0
  7 18  1  0  0  0  0
  7 19  1  0  0  0  0
  8 20  1  0  0  0  0
  8 21  1  0  0  0  0
  8 27  1  0  0  0  0
 10 22  1  0  0  0  0
 10 23  1  0  0  0  0
 10 24  1  0  0  0  0
 25 26  1  6  0  0  0
 27 28  1  0  0  0  0
M  CHG  1  25   1
M  END
>  <s_m_entry_id>
6970

>  <s_m_entry_name>
Schrodinger_fragment_505

>  <s_m_Source_Path>
/aloy/home/agimeno/Documents/Starting_Project/Part1_SMILES-to-signatures/1.2/Databases/Compounds/Fragment_library/Schrodinger

>  <s_m_Source_File>
schrodinger_fragment_collection_epik.maegz

>  <i_m_Source_File_Index>
601

>  <i_m_number_of_atoms>
29

>  <r_m_molecular_weight>
171.24419

>  <s_m_molecular_formula>
C8H17N3O1

>  <r_epik_Ionization_Penalty>
0.0014

>  <r_epik_Ionization_Penalty_Charging>
0.0014

>  <r_epik_Ionization_Penalty_Neutral>
0.0000

>  <r_epik_State_Penalty>
0.0000

>  <i_epik_Tot_Q>
1

>  <r_epik_Metal_State_Penalty>
0.0000

>  <b_epik_Metal_Only>
0

>  <s_canvas_Unique_SMILES_Stereo>
CN(C1)C(=O)C[N@@H+]([C@H]12)CCCN2

>  <s_m_subgroup_title>
schrodinger_fragment_collection_epik

>  <s_m_subgroupid>
schrodinger_fragment_collection_epik

>  <b_m_subgroup_collapsed>
0

$$$$
Schrodinger_fragment_101
 OpenBabel04062209313D
Schrodinger Suite 2020-2.
  9  9  0  0  1  0  0  0  0  0999 V2000
    0.0683    2.1083    0.0273 N   0  0  0  0  0  0  0  0  0  0  0  0
    0.0417    0.7659    0.0243 N   0  0  0  0  0  0  0  0  0  0  0  0
    1.2155    0.0873    0.0189 C   0  0  0  0  0  0  0  0  0  0  0  0
    2.4405    0.7842    0.0165 C   0  0  0  0  0  0  0  0  0  0  0  0
    2.4644    2.1371    0.0196 N   0  0  0  0  0  0  0  0  0  0  0  0
    1.2642    2.7277    0.0248 C   0  0  0  0  0  0  0  0  0  0  0  0
    1.1770   -0.9923    0.0165 H   0  0  0  0  0  0  0  0  0  0  0  0
    3.3844    0.2593    0.0122 H   0  0  0  0  0  0  0  0  0  0  0  0
    1.2543    3.8070    0.0274 H   0  0  0  0  0  0  0  0  0  0  0  0
  1  2  2  0  0  0  0
  1  6  1  0  0  0  0
  2  3  1  0  0  0  0
  3  4  2  0  0  0  0
  3  7  1  0  0  0  0
  4  5  1  0  0  0  0
  4  8  1  0  0  0  0
  5  6  2  0  0  0  0
  6  9  1  0  0  0  0
M  END
>  <s_m_entry_id>
6492

>  <s_m_entry_name>
Schrodinger_fragment_113

>  <s_m_Source_Path>
/aloy/home/agimeno/Documents/Starting_Project/Part1_SMILES-to-signatures/1.2/Databases/Compounds/Fragment_library/Schrodinger

>  <s_m_Source_File>
schrodinger_fragment_collection_epik.maegz

>  <i_m_Source_File_Index>
123

>  <i_m_number_of_atoms>
9

>  <r_m_molecular_weight>
81.07746

>  <s_m_molecular_formula>
C3H3N3

>  <r_epik_Ionization_Penalty>
0.0000

>  <r_epik_Ionization_Penalty_Charging>
0.0000

>  <r_epik_Ionization_Penalty_Neutral>
0.0000

>  <r_epik_State_Penalty>
0.0000

>  <i_epik_Tot_Q>
0

>  <r_epik_Metal_State_Penalty>
0.0000

>  <b_epik_Metal_Only>
0

>  <s_canvas_Unique_SMILES_Stereo>
c1cnncn1

>  <s_m_subgroup_title>
schrodinger_fragment_collection_epik

>  <s_m_subgroupid>
schrodinger_fragment_collection_epik

>  <b_m_subgroup_collapsed>
0

$$$$
Schrodinger_fragment_69
 OpenBabel04062209313D
Schrodinger Suite 2020-2.
 22 22  0  0  1  0  0  0  0  0999 V2000
    6.9311   -8.3021   -0.4736 C   0  0  0  0  0  0  0  0  0  0  0  0
    5.6337   -7.6345   -0.2752 N   0  0  0  0  0  0  0  0  0  0  0  0
    5.6782   -6.1862   -0.5420 C   0  0  0  0  0  0  0  0  0  0  0  0
    6.7769   -5.5031    0.2974 C   0  0  0  0  0  0  0  0  0  0  0  0
    8.0337   -7.6311    0.3687 C   0  0  0  0  0  0  0  0  0  0  0  0
    4.5384   -8.3081    0.1546 C   0  0  0  0  0  0  0  0  0  0  0  0
    3.2199   -7.5616    0.3483 C   0  0  0  0  0  0  0  0  0  0  0  0
    4.5553   -9.5179    0.3983 O   0  0  0  0  0  0  0  0  0  0  0  0
    6.9057   -9.3665   -0.2354 H   0  0  0  0  0  0  0  0  0  0  0  0
    7.1873   -8.2471   -1.5324 H   0  0  0  0  0  0  0  0  0  0  0  0
    5.8829   -6.0426   -1.6038 H   0  0  0  0  0  0  0  0  0  0  0  0
    4.7354   -5.6729   -0.3600 H   0  0  0  0  0  0  0  0  0  0  0  0
    6.8708   -4.4530    0.0182 H   0  0  0  0  0  0  0  0  0  0  0  0
    6.4982   -5.5204    1.3520 H   0  0  0  0  0  0  0  0  0  0  0  0
    7.8506   -7.8149    1.4284 H   0  0  0  0  0  0  0  0  0  0  0  0
    9.0061   -8.0691    0.1407 H   0  0  0  0  0  0  0  0  0  0  0  0
    2.4336   -8.2464    0.6661 H   0  0  0  0  0  0  0  0  0  0  0  0
    2.8982   -7.0975   -0.5839 H   0  0  0  0  0  0  0  0  0  0  0  0
    3.3203   -6.7934    1.1149 H   0  0  0  0  0  0  0  0  0  0  0  0
    8.0839   -6.1730    0.1367 N   0  3  0  0  0  0  0  0  0  0  0  0
    8.4255   -6.0029   -0.7953 H   0  0  0  0  0  0  0  0  0  0  0  0
    8.7472   -5.7601    0.7731 H   0  0  0  0  0  0  0  0  0  0  0  0
  1  2  1  0  0  0  0
  1  5  1  0  0  0  0
  1  9  1  0  0  0  0
  1 10  1  0  0  0  0
  2  3  1  0  0  0  0
  2  6  1  0  0  0  0
  3  4  1  0  0  0  0
  3 11  1  0  0  0  0
  3 12  1  0  0  0  0
  4 13  1  0  0  0  0
  4 14  1  0  0  0  0
  4 20  1  0  0  0  0
  5 15  1  0  0  0  0
  5 16  1  0  0  0  0
  5 20  1  0  0  0  0
  6  7  1  0  0  0  0
  6  8  2  0  0  0  0
  7 17  1  0  0  0  0
  7 18  1  0  0  0  0
  7 19  1  0  0  0  0
 20 21  1  0  0  0  0
 20 22  1  0  0  0  0
M  CHG  1  20   1
M  END
>  <s_m_entry_id>
6451

>  <s_m_entry_name>
Schrodinger_fragment_78

>  <s_m_Source_Path>
/aloy/home/agimeno/Documents/Starting_Project/Part1_SMILES-to-signatures/1.2/Databases/Compounds/Fragment_library/Schrodinger

>  <s_m_Source_File>
schrodinger_fragment_collection_epik.maegz

>  <i_m_Source_File_Index>
82

>  <i_m_number_of_atoms>
22

>  <r_m_molecular_weight>
129.18331

>  <s_m_molecular_formula>
C6H13N2O1

>  <r_epik_Ionization_Penalty>
0.7603

>  <r_epik_Ionization_Penalty_Charging>
0.7603

>  <r_epik_Ionization_Penalty_Neutral>
0.0000

>  <r_epik_State_Penalty>
0.3802

>  <i_epik_Tot_Q>
1

>  <r_epik_Metal_State_Penalty>
0.3802

>  <b_epik_Metal_Only>
0

>  <s_canvas_Unique_SMILES_Stereo>
CC(=O)N1CC[NH2+]CC1

>  <s_m_subgroup_title>
schrodinger_fragment_collection_epik

>  <s_m_subgroupid>
schrodinger_fragment_collection_epik

>  <b_m_subgroup_collapsed>
0

$$$$
Schrodinger_fragment_153_a
 OpenBabel04062209313D
Schrodinger Suite 2020-2.
 25 26  0  0  1  0  0  0  0  0999 V2000
    2.0613   -2.6639    0.5419 C   0  0  0  0  0  0  0  0  0  0  0  0
    2.0183   -4.1119    0.0423 C   0  0  0  0  0  0  0  0  0  0  0  0
    3.2603   -4.8548    0.3731 N   0  3  0  0  0  0  0  0  0  0  0  0
    4.5550   -4.0625    0.1576 C   0  0  0  0  0  0  0  0  0  0  0  0
    4.5131   -2.6630   -0.0823 C   0  0  0  0  0  0  0  0  0  0  0  0
    3.1995   -1.9014   -0.1387 C   0  0  0  0  0  0  0  0  0  0  0  0
    5.8030   -4.7241    0.2419 C   0  0  0  0  0  0  0  0  0  0  0  0
    6.9982   -4.0031    0.0560 C   0  0  0  0  0  0  0  0  0  0  0  0
    6.9558   -2.6208   -0.2042 C   0  0  0  0  0  0  0  0  0  0  0  0
    5.7181   -1.9537   -0.2696 C   0  0  0  0  0  0  0  0  0  0  0  0
    3.2450   -6.1898   -0.2708 C   0  0  0  0  0  0  0  0  0  0  0  0
    1.1111   -2.1657    0.3468 H   0  0  0  0  0  0  0  0  0  0  0  0
    2.1994   -2.6524    1.6239 H   0  0  0  0  0  0  0  0  0  0  0  0
    1.1639   -4.6252    0.4853 H   0  0  0  0  0  0  0  0  0  0  0  0
    1.8619   -4.1203   -1.0377 H   0  0  0  0  0  0  0  0  0  0  0  0
    2.9541   -1.7232   -1.1867 H   0  0  0  0  0  0  0  0  0  0  0  0
    3.3178   -0.9211    0.3252 H   0  0  0  0  0  0  0  0  0  0  0  0
    5.8699   -5.7810    0.4528 H   0  0  0  0  0  0  0  0  0  0  0  0
    7.9506   -4.5119    0.1163 H   0  0  0  0  0  0  0  0  0  0  0  0
    7.8753   -2.0691   -0.3465 H   0  0  0  0  0  0  0  0  0  0  0  0
    5.6981   -0.8892   -0.4603 H   0  0  0  0  0  0  0  0  0  0  0  0
    3.9807   -6.8593    0.1717 H   0  0  0  0  0  0  0  0  0  0  0  0
    3.4515   -6.1090   -1.3383 H   0  0  0  0  0  0  0  0  0  0  0  0
    2.2745   -6.6721   -0.1515 H   0  0  0  0  0  0  0  0  0  0  0  0
    3.1791   -5.0483    1.3603 H   0  0  0  0  0  0  0  0  0  0  0  0
  1  2  1  0  0  0  0
  1  6  1  0  0  0  0
  1 12  1  0  0  0  0
  1 13  1  0  0  0  0
  2  3  1  0  0  0  0
  2 14  1  0  0  0  0
  2 15  1  0  0  0  0
  3  4  1  0  0  0  0
  3 11  1  0  0  0  0
  3 25  1  0  0  0  0
  4  5  2  0  0  0  0
  4  7  1  0  0  0  0
  5  6  1  0  0  0  0
  5 10  1  0  0  0  0
  6 16  1  0  0  0  0
  6 17  1  0  0  0  0
  7  8  2  0  0  0  0
  7 18  1  0  0  0  0
  8  9  1  0  0  0  0
  8 19  1  0  0  0  0
  9 10  2  0  0  0  0
  9 20  1  0  0  0  0
 10 21  1  0  0  0  0
 11 22  1  0  0  0  0
 11 23  1  0  0  0  0
 11 24  1  0  0  0  0
M  CHG  1   3   1
M  END
>  <s_m_entry_id>
6563

>  <s_m_entry_name>
Schrodinger_fragment_201

>  <s_m_Source_Path>
/aloy/home/agimeno/Documents/Starting_Project/Part1_SMILES-to-signatures/1.2/Databases/Compounds/Fragment_library/Schrodinger

>  <s_m_Source_File>
schrodinger_fragment_collection_epik.maegz

>  <i_m_Source_File_Index>
194

>  <i_m_number_of_atoms>
24

>  <r_m_molecular_weight>
147.22181

>  <s_m_molecular_formula>
C10H13N1

>  <r_epik_Ionization_Penalty>
1.4480

>  <r_epik_Ionization_Penalty_Charging>
1.4480

>  <r_epik_Ionization_Penalty_Neutral>
0.0000

>  <r_epik_State_Penalty>
1.4480

>  <i_epik_Tot_Q>
1

>  <r_epik_Metal_State_Penalty>
1.4480

>  <b_epik_Metal_Only>
0

>  <s_canvas_Unique_SMILES_Stereo>
C1CC[N@@H+](C)c(c12)cccc2

>  <s_m_subgroup_title>
schrodinger_fragment_collection_epik

>  <s_m_subgroupid>
schrodinger_fragment_collection_epik

>  <b_m_subgroup_collapsed>
0

$$$$
Schrodinger_fragment_280_a
 OpenBabel04062209313D
Schrodinger Suite 2020-2.
 16 17  0  0  1  0  0  0  0  0999 V2000
    2.1827    2.1497   -0.0184 C   0  0  0  0  0  0  0  0  0  0  0  0
    2.1607    0.7839   -0.0226 N   0  0  0  0  0  0  0  0  0  0  0  0
    3.3410   -0.0319   -0.2081 C   0  0  0  0  0  0  0  0  0  0  0  0
    4.5932    0.7716    0.2633 C   0  0  0  0  0  0  0  0  0  0  0  0
    4.5956    2.2086   -0.1045 N   0  0  0  0  0  0  0  0  0  0  0  0
    3.4838    2.8250   -0.1633 C   0  0  0  0  0  0  0  0  0  0  0  0
    0.9023    2.6021    0.1355 C   0  0  0  0  0  0  0  0  0  0  0  0
    0.1505    1.3900    0.2026 C   0  0  0  0  0  0  0  0  0  0  0  0
    0.9042    0.2925    0.0980 N   0  0  0  0  0  0  0  0  0  0  0  0
    3.2686    4.0214   -0.3838 O   0  5  0  0  0  0  0  0  0  0  0  0
    3.2393   -0.9654    0.3477 H   0  0  0  0  0  0  0  0  0  0  0  0
    3.4181   -0.2858   -1.2664 H   0  0  0  0  0  0  0  0  0  0  0  0
    4.6724    0.6852    1.3491 H   0  0  0  0  0  0  0  0  0  0  0  0
    5.4877    0.2866   -0.1314 H   0  0  0  0  0  0  0  0  0  0  0  0
    0.5650    3.6265    0.1858 H   0  0  0  0  0  0  0  0  0  0  0  0
   -0.9184    1.2763    0.3193 H   0  0  0  0  0  0  0  0  0  0  0  0
  1  2  1  0  0  0  0
  1  6  1  0  0  0  0
  1  7  2  0  0  0  0
  2  3  1  0  0  0  0
  2  9  1  0  0  0  0
  3  4  1  0  0  0  0
  3 11  1  0  0  0  0
  3 12  1  0  0  0  0
  4  5  1  0  0  0  0
  4 13  1  0  0  0  0
  4 14  1  0  0  0  0
  5  6  2  0  0  0  0
  6 10  1  0  0  0  0
  7  8  1  0  0  0  0
  7 15  1  0  0  0  0
  8  9  2  0  0  0  0
  8 16  1  0  0  0  0
M  CHG  1  10  -1
M  END
>  <s_m_entry_id>
6733

>  <s_m_entry_name>
Schrodinger_fragment_341

>  <s_m_Source_Path>
/aloy/home/agimeno/Documents/Starting_Project/Part1_SMILES-to-signatures/1.2/Databases/Compounds/Fragment_library/Schrodinger

>  <s_m_Source_File>
schrodinger_fragment_collection_epik.maegz

>  <i_m_Source_File_Index>
364

>  <i_m_number_of_atoms>
17

>  <r_m_molecular_weight>
137.14219

>  <s_m_molecular_formula>
C6H7N3O1

>  <r_epik_Ionization_Penalty>
5.7362

>  <r_epik_Ionization_Penalty_Charging>
5.7359

>  <r_epik_Ionization_Penalty_Neutral>
0.0002

>  <r_epik_State_Penalty>
5.7359

>  <i_epik_Tot_Q>
-1

>  <r_epik_Metal_State_Penalty>
1.7129

>  <b_epik_Metal_Only>
1

>  <s_canvas_Unique_SMILES_Stereo>
c1cnn(c12)CCN=C2[O-]

>  <s_m_subgroup_title>
schrodinger_fragment_collection_epik

>  <s_m_subgroupid>
schrodinger_fragment_collection_epik

>  <b_m_subgroup_collapsed>
0

$$$$
Schrodinger_fragment_397_a
 OpenBabel04062209313D
Schrodinger Suite 2020-2.
 27 28  0  0  1  0  0  0  0  0999 V2000
    2.4598   -2.3210    0.5910 C   0  0  1  0  0  0  0  0  0  0  0  0
    3.4227   -2.7079   -0.5817 C   0  0  0  0  0  0  0  0  0  0  0  0
    4.6407   -1.8908   -0.6982 N   0  0  0  0  0  0  0  0  0  0  0  0
    4.7464   -0.7734   -0.1044 C   0  0  0  0  0  0  0  0  0  0  0  0
    3.6478   -0.2663    0.8589 C   0  0  0  0  0  0  0  0  0  0  0  0
    1.6074   -0.2878   -0.4595 C   0  0  0  0  0  0  0  0  0  0  0  0
    0.1965   -0.8896   -0.4996 C   0  0  0  0  0  0  0  0  0  0  0  0
    0.2553   -2.4222   -0.5696 C   0  0  0  0  0  0  0  0  0  0  0  0
    5.7321   -0.0468   -0.2392 O   0  5  0  0  0  0  0  0  0  0  0  0
    1.1485   -4.4403    0.5454 C   0  0  0  0  0  0  0  0  0  0  0  0
    2.9131   -2.6608    1.5254 H   0  0  0  0  0  0  0  0  0  0  0  0
    3.7146   -3.7521   -0.4584 H   0  0  0  0  0  0  0  0  0  0  0  0
    2.8974   -2.6743   -1.5365 H   0  0  0  0  0  0  0  0  0  0  0  0
    3.9790   -0.4751    1.8783 H   0  0  0  0  0  0  0  0  0  0  0  0
    3.5708    0.8216    0.7964 H   0  0  0  0  0  0  0  0  0  0  0  0
    2.1348   -0.4727   -1.3967 H   0  0  0  0  0  0  0  0  0  0  0  0
    1.5368    0.7957   -0.3496 H   0  0  0  0  0  0  0  0  0  0  0  0
   -0.3635   -0.5781    0.3835 H   0  0  0  0  0  0  0  0  0  0  0  0
   -0.3505   -0.5002   -1.3591 H   0  0  0  0  0  0  0  0  0  0  0  0
   -0.7516   -2.8315   -0.4797 H   0  0  0  0  0  0  0  0  0  0  0  0
    0.6302   -2.7398   -1.5427 H   0  0  0  0  0  0  0  0  0  0  0  0
    0.1436   -4.8442    0.6698 H   0  0  0  0  0  0  0  0  0  0  0  0
    1.7513   -4.7991    1.3801 H   0  0  0  0  0  0  0  0  0  0  0  0
    1.5605   -4.8526   -0.3757 H   0  0  0  0  0  0  0  0  0  0  0  0
    2.3161   -0.8602    0.6902 N   0  0  1  0  0  0  0  0  0  0  0  0
    1.1144   -2.9603    0.5150 N   0  3  1  0  0  0  0  0  0  0  0  0
    0.6602   -2.6961    1.3761 H   0  0  0  0  0  0  0  0  0  0  0  0
  1  2  1  0  0  0  0
  1 11  1  0  0  0  0
  1 25  1  1  0  0  0
  2  3  1  0  0  0  0
  2 12  1  0  0  0  0
  2 13  1  0  0  0  0
  3  4  2  0  0  0  0
  4  5  1  0  0  0  0
  4  9  1  0  0  0  0
  5 14  1  0  0  0  0
  5 15  1  0  0  0  0
  6  7  1  0  0  0  0
  6 16  1  0  0  0  0
  6 17  1  0  0  0  0
  7  8  1  0  0  0  0
  7 18  1  0  0  0  0
  7 19  1  0  0  0  0
  8 20  1  0  0  0  0
  8 21  1  0  0  0  0
  8 26  1  0  0  0  0
 10 22  1  0  0  0  0
 10 23  1  0  0  0  0
 10 24  1  0  0  0  0
 10 26  1  0  0  0  0
 25  6  1  6  0  0  0
 25  5  1  0  0  0  0
 26  1  1  6  0  0  0
 26 27  1  0  0  0  0
M  CHG  2   9  -1  26   1
M  END
>  <s_m_entry_id>
6957

>  <s_m_entry_name>
Schrodinger_fragment_491

>  <s_m_Source_Path>
/aloy/home/agimeno/Documents/Starting_Project/Part1_SMILES-to-signatures/1.2/Databases/Compounds/Fragment_library/Schrodinger

>  <s_m_Source_File>
schrodinger_fragment_collection_epik.maegz

>  <i_m_Source_File_Index>
588

>  <i_m_number_of_atoms>
29

>  <r_m_molecular_weight>
171.24419

>  <s_m_molecular_formula>
C8H17N3O1

>  <r_epik_Ionization_Penalty>
5.4541

>  <r_epik_Ionization_Penalty_Charging>
5.4508

>  <r_epik_Ionization_Penalty_Neutral>
0.0033

>  <r_epik_State_Penalty>
5.5898

>  <i_epik_Tot_Q>
0

>  <r_epik_Metal_State_Penalty>
1.5546

>  <b_epik_Metal_Only>
1

>  <s_canvas_Unique_SMILES_Stereo>
C[N@@H+]1CCCN([C@@H]12)CC([O-])=NC2

>  <s_m_subgroup_title>
schrodinger_fragment_collection_epik

>  <s_m_subgroupid>
schrodinger_fragment_collection_epik

>  <b_m_subgroup_collapsed>
0

$$$$
Schrodinger_fragment_253
 OpenBabel04062209313D
Schrodinger Suite 2020-2.
 23 24  0  0  1  0  0  0  0  0999 V2000
    0.0149   -0.5355    0.5262 C   0  0  0  0  0  0  0  0  0  0  0  0
   -0.1264   -1.4943   -0.6602 C   0  0  0  0  0  0  0  0  0  0  0  0
    2.2066   -1.3057   -0.1065 C   0  0  2  0  0  0  0  0  0  0  0  0
    1.3644   -0.9223    1.1274 C   0  0  0  0  0  0  0  0  0  0  0  0
    3.2391   -2.3899    0.1869 C   0  0  0  0  0  0  0  0  0  0  0  0
    4.4735   -1.9059    0.1050 N   0  0  0  0  0  0  0  0  0  0  0  0
    4.5150   -0.4895   -0.2136 C   0  0  0  0  0  0  0  0  0  0  0  0
    3.0780   -0.1502   -0.6449 C   0  0  0  0  0  0  0  0  0  0  0  0
    2.9507   -3.5641    0.4226 O   0  0  0  0  0  0  0  0  0  0  0  0
    0.0500    0.4956    0.1701 H   0  0  0  0  0  0  0  0  0  0  0  0
   -0.8091   -0.6145    1.2365 H   0  0  0  0  0  0  0  0  0  0  0  0
   -0.6148   -2.4168   -0.3432 H   0  0  0  0  0  0  0  0  0  0  0  0
   -0.7193   -1.0670   -1.4698 H   0  0  0  0  0  0  0  0  0  0  0  0
    1.8065   -0.1157    1.7133 H   0  0  0  0  0  0  0  0  0  0  0  0
    1.2381   -1.7766    1.7953 H   0  0  0  0  0  0  0  0  0  0  0  0
    5.3080   -2.4586    0.2538 H   0  0  0  0  0  0  0  0  0  0  0  0
    4.8019    0.0737    0.6763 H   0  0  0  0  0  0  0  0  0  0  0  0
    5.2408   -0.2751   -0.9995 H   0  0  0  0  0  0  0  0  0  0  0  0
    3.0306   -0.0990   -1.7335 H   0  0  0  0  0  0  0  0  0  0  0  0
    2.7675    0.8255   -0.2696 H   0  0  0  0  0  0  0  0  0  0  0  0
    1.2475   -1.8192   -1.1017 N   0  3  0  0  0  0  0  0  0  0  0  0
    1.3731   -2.8205   -1.1252 H   0  0  0  0  0  0  0  0  0  0  0  0
    1.4552   -1.4512   -2.0147 H   0  0  0  0  0  0  0  0  0  0  0  0
  1  2  1  0  0  0  0
  1  4  1  0  0  0  0
  1 10  1  0  0  0  0
  1 11  1  0  0  0  0
  2 12  1  0  0  0  0
  2 13  1  0  0  0  0
  2 21  1  0  0  0  0
  3  4  1  0  0  0  0
  3  5  1  1  0  0  0
  3  8  1  0  0  0  0
  3 21  1  0  0  0  0
  4 14  1  0  0  0  0
  4 15  1  0  0  0  0
  5  6  1  0  0  0  0
  5  9  2  0  0  0  0
  6  7  1  0  0  0  0
  6 16  1  0  0  0  0
  7  8  1  0  0  0  0
  7 17  1  0  0  0  0
  7 18  1  0  0  0  0
  8 19  1  0  0  0  0
  8 20  1  0  0  0  0
 21 22  1  0  0  0  0
 21 23  1  0  0  0  0
M  CHG  1  21   1
M  END
>  <s_m_entry_id>
6695

>  <s_m_entry_name>
Schrodinger_fragment_314

>  <s_m_Source_Path>
/aloy/home/agimeno/Documents/Starting_Project/Part1_SMILES-to-signatures/1.2/Databases/Compounds/Fragment_library/Schrodinger

>  <s_m_Source_File>
schrodinger_fragment_collection_epik.maegz

>  <i_m_Source_File_Index>
326

>  <i_m_number_of_atoms>
23

>  <r_m_molecular_weight>
141.19446

>  <s_m_molecular_formula>
C7H13N2O1

>  <r_epik_Ionization_Penalty>
0.0028

>  <r_epik_Ionization_Penalty_Charging>
0.0019

>  <r_epik_Ionization_Penalty_Neutral>
0.0009

>  <r_epik_State_Penalty>
0.0000

>  <i_epik_Tot_Q>
1

>  <r_epik_Metal_State_Penalty>
0.5395

>  <b_epik_Metal_Only>
0

>  <s_canvas_Unique_SMILES_Stereo>
C1CNC(=O)[C@@]12CCC[NH2+]2

>  <s_m_subgroup_title>
schrodinger_fragment_collection_epik

>  <s_m_subgroupid>
schrodinger_fragment_collection_epik

>  <b_m_subgroup_collapsed>
0

$$$$
Schrodinger_fragment_156_a
 OpenBabel04062209313D
Schrodinger Suite 2020-2.
 22 23  0  0  1  0  0  0  0  0999 V2000
    2.4328    2.1586    0.0559 C   0  0  0  0  0  0  0  0  0  0  0  0
    2.4338    0.7408   -0.0124 C   0  0  0  0  0  0  0  0  0  0  0  0
    3.7301   -0.0564   -0.0674 C   0  0  0  0  0  0  0  0  0  0  0  0
    4.9665    0.7541    0.3492 C   0  0  0  0  0  0  0  0  0  0  0  0
    4.9658    2.1434   -0.2984 C   0  0  0  0  0  0  0  0  0  0  0  0
    3.7292    2.9536    0.1185 C   0  0  0  0  0  0  0  0  0  0  0  0
    1.1971    2.8396    0.0870 C   0  0  0  0  0  0  0  0  0  0  0  0
   -0.0040    2.1033    0.0459 C   0  0  0  0  0  0  0  0  0  0  0  0
    0.0407    0.7557   -0.0214 N   0  3  0  0  0  0  0  0  0  0  0  0
    1.1969    0.0592   -0.0523 C   0  0  0  0  0  0  0  0  0  0  0  0
    3.6429   -0.9456    0.5586 H   0  0  0  0  0  0  0  0  0  0  0  0
    3.8574   -0.4107   -1.0912 H   0  0  0  0  0  0  0  0  0  0  0  0
    4.9765    0.8693    1.4342 H   0  0  0  0  0  0  0  0  0  0  0  0
    5.8751    0.2082    0.0914 H   0  0  0  0  0  0  0  0  0  0  0  0
    5.8740    2.6901   -0.0422 H   0  0  0  0  0  0  0  0  0  0  0  0
    4.9722    2.0273   -1.3831 H   0  0  0  0  0  0  0  0  0  0  0  0
    3.6430    3.8446   -0.5043 H   0  0  0  0  0  0  0  0  0  0  0  0
    3.8515    3.3027    1.1443 H   0  0  0  0  0  0  0  0  0  0  0  0
    1.1644    3.9186    0.1448 H   0  0  0  0  0  0  0  0  0  0  0  0
   -0.9892    2.5494    0.0658 H   0  0  0  0  0  0  0  0  0  0  0  0
    1.0984   -1.0163   -0.1105 H   0  0  0  0  0  0  0  0  0  0  0  0
   -0.8410    0.2389   -0.0512 H   0  0  0  0  0  0  0  0  0  0  0  0
  1  2  2  0  0  0  0
  1  6  1  0  0  0  0
  1  7  1  0  0  0  0
  2  3  1  0  0  0  0
  2 10  1  0  0  0  0
  3  4  1  0  0  0  0
  3 11  1  0  0  0  0
  3 12  1  0  0  0  0
  4  5  1  0  0  0  0
  4 13  1  0  0  0  0
  4 14  1  0  0  0  0
  5  6  1  0  0  0  0
  5 15  1  0  0  0  0
  5 16  1  0  0  0  0
  6 17  1  0  0  0  0
  6 18  1  0  0  0  0
  7  8  2  0  0  0  0
  7 19  1  0  0  0  0
  8  9  1  0  0  0  0
  8 20  1  0  0  0  0
  9 10  2  0  0  0  0
  9 22  1  0  0  0  0
 10 21  1  0  0  0  0
M  CHG  1   9   1
M  END
>  <s_m_entry_id>
6569

>  <s_m_entry_name>
Schrodinger_fragment_205

>  <s_m_Source_Path>
/aloy/home/agimeno/Documents/Starting_Project/Part1_SMILES-to-signatures/1.2/Databases/Compounds/Fragment_library/Schrodinger

>  <s_m_Source_File>
schrodinger_fragment_collection_epik.maegz

>  <i_m_Source_File_Index>
200

>  <i_m_number_of_atoms>
21

>  <r_m_molecular_weight>
133.19472

>  <s_m_molecular_formula>
C9H11N1

>  <r_epik_Ionization_Penalty>
1.2679

>  <r_epik_Ionization_Penalty_Charging>
1.2679

>  <r_epik_Ionization_Penalty_Neutral>
0.0000

>  <r_epik_State_Penalty>
1.2679

>  <i_epik_Tot_Q>
1

>  <r_epik_Metal_State_Penalty>
5.2865

>  <b_epik_Metal_Only>
0

>  <s_canvas_Unique_SMILES_Stereo>
C1CCCc(c12)c[nH+]cc2

>  <s_m_subgroup_title>
schrodinger_fragment_collection_epik

>  <s_m_subgroupid>
schrodinger_fragment_collection_epik

>  <b_m_subgroup_collapsed>
0

$$$$
Schrodinger_fragment_306_a
 OpenBabel04062209313D
Schrodinger Suite 2020-2.
 16 17  0  0  1  0  0  0  0  0999 V2000
    2.4056   -2.2022    0.0241 C   0  0  0  0  0  0  0  0  0  0  0  0
    2.4400   -3.6227   -0.0284 C   0  0  0  0  0  0  0  0  0  0  0  0
    3.5899   -4.3128    0.0016 N   0  0  0  0  0  0  0  0  0  0  0  0
    4.6861   -3.5589    0.0840 C   0  0  0  0  0  0  0  0  0  0  0  0
    4.7654   -2.2231    0.1389 N   0  0  0  0  0  0  0  0  0  0  0  0
    3.6244   -1.5284    0.1095 C   0  0  0  0  0  0  0  0  0  0  0  0
    1.0601   -1.8402   -0.0280 N   0  0  0  0  0  0  0  0  0  0  0  0
    0.2429   -2.8916   -0.1081 N   0  0  0  0  0  0  0  0  0  0  0  0
    1.0665   -4.0154   -0.1106 C   0  0  0  0  0  0  0  0  0  0  0  0
    3.7655   -0.1787    0.1678 O   0  5  0  0  0  0  0  0  0  0  0  0
    0.4836   -0.5097   -0.0055 C   0  0  0  0  0  0  0  0  0  0  0  0
    5.6257   -4.0913    0.1097 H   0  0  0  0  0  0  0  0  0  0  0  0
    0.6659   -5.0174   -0.1684 H   0  0  0  0  0  0  0  0  0  0  0  0
   -0.6052   -0.5516   -0.0604 H   0  0  0  0  0  0  0  0  0  0  0  0
    0.8555    0.0654   -0.8537 H   0  0  0  0  0  0  0  0  0  0  0  0
    0.7689   -0.0021    0.9162 H   0  0  0  0  0  0  0  0  0  0  0  0
  1  2  2  0  0  0  0
  1  6  1  0  0  0  0
  1  7  1  0  0  0  0
  2  3  1  0  0  0  0
  2  9  1  0  0  0  0
  3  4  2  0  0  0  0
  4  5  1  0  0  0  0
  4 12  1  0  0  0  0
  5  6  2  0  0  0  0
  6 10  1  0  0  0  0
  7  8  1  0  0  0  0
  7 11  1  0  0  0  0
  8  9  2  0  0  0  0
  9 13  1  0  0  0  0
 11 14  1  0  0  0  0
 11 15  1  0  0  0  0
 11 16  1  0  0  0  0
M  CHG  1  10  -1
M  END
>  <s_m_entry_id>
6790

>  <s_m_entry_name>
Schrodinger_fragment_370

>  <s_m_Source_Path>
/aloy/home/agimeno/Documents/Starting_Project/Part1_SMILES-to-signatures/1.2/Databases/Compounds/Fragment_library/Schrodinger

>  <s_m_Source_File>
schrodinger_fragment_collection_epik.maegz

>  <i_m_Source_File_Index>
421

>  <i_m_number_of_atoms>
17

>  <r_m_molecular_weight>
150.14092

>  <s_m_molecular_formula>
C6H6N4O1

>  <r_epik_Ionization_Penalty>
0.9140

>  <r_epik_Ionization_Penalty_Charging>
0.0000

>  <r_epik_Ionization_Penalty_Neutral>
0.9140

>  <r_epik_State_Penalty>
0.7813

>  <i_epik_Tot_Q>
-1

>  <r_epik_Metal_State_Penalty>
0.3556

>  <b_epik_Metal_Only>
0

>  <s_canvas_Unique_SMILES_Stereo>
Cn1ncc(c12)ncnc2[O-]

>  <s_m_subgroup_title>
schrodinger_fragment_collection_epik

>  <s_m_subgroupid>
schrodinger_fragment_collection_epik

>  <b_m_subgroup_collapsed>
0

$$$$
Schrodinger_fragment_220_a
 OpenBabel04062209313D
Schrodinger Suite 2020-2.
 11 11  0  0  1  0  0  0  0  0999 V2000
    1.1992    2.2165    0.0199 C   0  0  0  0  0  0  0  0  0  0  0  0
    1.2777    0.6587    0.0180 C   0  0  0  0  0  0  0  0  0  0  0  0
    2.3948    0.0323    0.0213 N   0  0  0  0  0  0  0  0  0  0  0  0
    3.6027    0.7509    0.0269 C   0  0  0  0  0  0  0  0  0  0  0  0
    3.6135    2.1002    0.0289 C   0  0  0  0  0  0  0  0  0  0  0  0
    2.4093    2.8140    0.0253 N   0  0  0  0  0  0  0  0  0  0  0  0
    0.1638    0.1183    0.0130 O   0  5  0  0  0  0  0  0  0  0  0  0
    0.1392    2.8544    0.0167 O   0  0  0  0  0  0  0  0  0  0  0  0
    4.5228    0.1771    0.0296 H   0  0  0  0  0  0  0  0  0  0  0  0
    4.5071    2.7113    0.0331 H   0  0  0  0  0  0  0  0  0  0  0  0
    2.4544    3.8218    0.0269 H   0  0  0  0  0  0  0  0  0  0  0  0
  1  2  1  0  0  0  0
  1  6  1  0  0  0  0
  1  8  2  0  0  0  0
  2  3  2  0  0  0  0
  2  7  1  0  0  0  0
  3  4  1  0  0  0  0
  4  5  2  0  0  0  0
  4  9  1  0  0  0  0
  5  6  1  0  0  0  0
  5 10  1  0  0  0  0
  6 11  1  0  0  0  0
M  CHG  1   7  -1
M  END
>  <s_m_entry_id>
6652

>  <s_m_entry_name>
Schrodinger_fragment_277

>  <s_m_Source_Path>
/aloy/home/agimeno/Documents/Starting_Project/Part1_SMILES-to-signatures/1.2/Databases/Compounds/Fragment_library/Schrodinger

>  <s_m_Source_File>
schrodinger_fragment_collection_epik.maegz

>  <i_m_Source_File_Index>
283

>  <i_m_number_of_atoms>
12

>  <r_m_molecular_weight>
112.08868

>  <s_m_molecular_formula>
C4H4N2O2

>  <r_epik_Ionization_Penalty>
5.1940

>  <r_epik_Ionization_Penalty_Charging>
0.1475

>  <r_epik_Ionization_Penalty_Neutral>
5.0464

>  <r_epik_State_Penalty>
5.0463

>  <i_epik_Tot_Q>
-1

>  <r_epik_Metal_State_Penalty>
1.0616

>  <b_epik_Metal_Only>
1

>  <s_canvas_Unique_SMILES_Stereo>
[O-]c1c(=O)[nH]ccn1

>  <s_m_subgroup_title>
schrodinger_fragment_collection_epik

>  <s_m_subgroupid>
schrodinger_fragment_collection_epik

>  <b_m_subgroup_collapsed>
0

$$$$
Schrodinger_fragment_433
 OpenBabel04062209313D
Schrodinger Suite 2020-2.
 25 26  0  0  1  0  0  0  0  0999 V2000
   -0.0024   -1.4655    0.1862 C   0  0  0  0  0  0  0  0  0  0  0  0
    0.0403   -2.8649    0.1198 C   0  0  0  0  0  0  0  0  0  0  0  0
    1.2771   -3.5131   -0.0325 C   0  0  0  0  0  0  0  0  0  0  0  0
    2.4910   -2.7914   -0.1181 C   0  0  0  0  0  0  0  0  0  0  0  0
    2.4472   -1.3625   -0.0657 C   0  0  0  0  0  0  0  0  0  0  0  0
    1.1894   -0.7270    0.0923 C   0  0  0  0  0  0  0  0  0  0  0  0
    3.7432   -3.6781   -0.2481 C   0  0  0  0  0  0  0  0  0  0  0  0
    5.0809   -3.1659    0.0465 N   0  0  0  0  0  0  0  0  0  0  0  0
    5.5925   -1.9696   -0.2350 C   0  0  0  0  0  0  0  0  0  0  0  0
    4.7061   -0.9745   -0.9676 C   0  0  0  0  0  0  0  0  0  0  0  0
    3.5460   -0.5765   -0.1810 N   0  0  0  0  0  0  0  0  0  0  0  0
    6.7379   -1.6632    0.0936 O   0  0  0  0  0  0  0  0  0  0  0  0
    3.6531    0.7451    0.4422 C   0  0  0  0  0  0  0  0  0  0  0  0
   -0.9487   -0.9552    0.3006 H   0  0  0  0  0  0  0  0  0  0  0  0
   -0.8727   -3.4414    0.1865 H   0  0  0  0  0  0  0  0  0  0  0  0
    1.2904   -4.5936   -0.0771 H   0  0  0  0  0  0  0  0  0  0  0  0
    1.1106    0.3502    0.1237 H   0  0  0  0  0  0  0  0  0  0  0  0
    3.6065   -4.5526    0.3894 H   0  0  0  0  0  0  0  0  0  0  0  0
    3.7611   -4.0612   -1.2692 H   0  0  0  0  0  0  0  0  0  0  0  0
    5.6910   -3.8064    0.5355 H   0  0  0  0  0  0  0  0  0  0  0  0
    5.3021   -0.1064   -1.2560 H   0  0  0  0  0  0  0  0  0  0  0  0
    4.3772   -1.4196   -1.9086 H   0  0  0  0  0  0  0  0  0  0  0  0
    4.6878    1.0017    0.6758 H   0  0  0  0  0  0  0  0  0  0  0  0
    3.1029    0.7896    1.3837 H   0  0  0  0  0  0  0  0  0  0  0  0
    3.2590    1.5174   -0.2200 H   0  0  0  0  0  0  0  0  0  0  0  0
  1  2  2  0  0  0  0
  1  6  1  0  0  0  0
  1 14  1  0  0  0  0
  2  3  1  0  0  0  0
  2 15  1  0  0  0  0
  3  4  2  0  0  0  0
  3 16  1  0  0  0  0
  4  5  1  0  0  0  0
  4  7  1  0  0  0  0
  5  6  2  0  0  0  0
  5 11  1  0  0  0  0
  6 17  1  0  0  0  0
  7  8  1  0  0  0  0
  7 18  1  0  0  0  0
  7 19  1  0  0  0  0
  8  9  1  0  0  0  0
  8 20  1  0  0  0  0
  9 10  1  0  0  0  0
  9 12  2  0  0  0  0
 10 11  1  0  0  0  0
 10 21  1  0  0  0  0
 10 22  1  0  0  0  0
 11 13  1  0  0  0  0
 13 23  1  0  0  0  0
 13 24  1  0  0  0  0
 13 25  1  0  0  0  0
M  END
>  <s_m_entry_id>
7023

>  <s_m_entry_name>
Schrodinger_fragment_537

>  <s_m_Source_Path>
/aloy/home/agimeno/Documents/Starting_Project/Part1_SMILES-to-signatures/1.2/Databases/Compounds/Fragment_library/Schrodinger

>  <s_m_Source_File>
schrodinger_fragment_collection_epik.maegz

>  <i_m_Source_File_Index>
654

>  <i_m_number_of_atoms>
25

>  <r_m_molecular_weight>
176.21994

>  <s_m_molecular_formula>
C10H12N2O1

>  <r_epik_Ionization_Penalty>
0.0017

>  <r_epik_Ionization_Penalty_Charging>
0.0000

>  <r_epik_Ionization_Penalty_Neutral>
0.0017

>  <r_epik_State_Penalty>
0.0000

>  <i_epik_Tot_Q>
0

>  <r_epik_Metal_State_Penalty>
0.0000

>  <b_epik_Metal_Only>
0

>  <s_canvas_Unique_SMILES_Stereo>
C1NC(=O)CN(C)c(c12)cccc2

>  <s_m_subgroup_title>
schrodinger_fragment_collection_epik

>  <s_m_subgroupid>
schrodinger_fragment_collection_epik

>  <b_m_subgroup_collapsed>
0

$$$$
Schrodinger_fragment_78_a
 OpenBabel04062209313D
Schrodinger Suite 2020-2.
 16 17  0  0  1  0  0  0  0  0999 V2000
    1.2681    4.3222    0.0298 C   0  0  0  0  0  0  0  0  0  0  0  0
    1.2578    2.9111    0.0288 C   0  0  0  0  0  0  0  0  0  0  0  0
    2.4577    2.1668    0.0254 C   0  0  0  0  0  0  0  0  0  0  0  0
    3.6440    2.8939    0.0231 C   0  0  0  0  0  0  0  0  0  0  0  0
    3.6544    4.3045    0.0241 C   0  0  0  0  0  0  0  0  0  0  0  0
    2.4788    5.0488    0.0274 C   0  0  0  0  0  0  0  0  0  0  0  0
    4.9755    2.4878    0.0196 N   0  3  0  0  0  0  0  0  0  0  0  0
    5.7854    3.5837    0.0185 C   0  0  0  0  0  0  0  0  0  0  0  0
    4.9915    4.6907    0.0211 N   0  0  0  0  0  0  0  0  0  0  0  0
    0.3259    4.8572    0.0324 H   0  0  0  0  0  0  0  0  0  0  0  0
    0.3079    2.3900    0.0307 H   0  0  0  0  0  0  0  0  0  0  0  0
    2.4451    1.0850    0.0247 H   0  0  0  0  0  0  0  0  0  0  0  0
    2.4828    6.1306    0.0281 H   0  0  0  0  0  0  0  0  0  0  0  0
    6.8687    3.5768    0.0159 H   0  0  0  0  0  0  0  0  0  0  0  0
    5.3555    5.6376    0.0209 H   0  0  0  0  0  0  0  0  0  0  0  0
    5.3247    1.5357    0.0182 H   0  0  0  0  0  0  0  0  0  0  0  0
  1  2  2  0  0  0  0
  1  6  1  0  0  0  0
  1 10  1  0  0  0  0
  2  3  1  0  0  0  0
  2 11  1  0  0  0  0
  3  4  2  0  0  0  0
  3 12  1  0  0  0  0
  4  5  1  0  0  0  0
  4  7  1  0  0  0  0
  5  6  2  0  0  0  0
  5  9  1  0  0  0  0
  6 13  1  0  0  0  0
  7  8  2  0  0  0  0
  7 16  1  0  0  0  0
  8  9  1  0  0  0  0
  8 14  1  0  0  0  0
  9 15  1  0  0  0  0
M  CHG  1   7   1
M  END
>  <s_m_entry_id>
6468

>  <s_m_entry_name>
Schrodinger_fragment_90

>  <s_m_Source_Path>
/aloy/home/agimeno/Documents/Starting_Project/Part1_SMILES-to-signatures/1.2/Databases/Compounds/Fragment_library/Schrodinger

>  <s_m_Source_File>
schrodinger_fragment_collection_epik.maegz

>  <i_m_Source_File_Index>
99

>  <i_m_number_of_atoms>
15

>  <r_m_molecular_weight>
118.13927

>  <s_m_molecular_formula>
C7H6N2

>  <r_epik_Ionization_Penalty>
3.6988

>  <r_epik_Ionization_Penalty_Charging>
1.8494

>  <r_epik_Ionization_Penalty_Neutral>
1.8494

>  <r_epik_State_Penalty>
1.8494

>  <i_epik_Tot_Q>
1

>  <r_epik_Metal_State_Penalty>
5.9155

>  <b_epik_Metal_Only>
0

>  <s_canvas_Unique_SMILES_Stereo>
[nH]1c[nH+]c(c12)cccc2

>  <s_m_subgroup_title>
schrodinger_fragment_collection_epik

>  <s_m_subgroupid>
schrodinger_fragment_collection_epik

>  <b_m_subgroup_collapsed>
0

$$$$
Schrodinger_fragment_197_a
 OpenBabel04062209313D
Schrodinger Suite 2020-2.
 11 11  0  0  1  0  0  0  0  0999 V2000
    1.2304    2.1386    0.0198 C   0  0  0  0  0  0  0  0  0  0  0  0
    1.2793    0.7412    0.0181 C   0  0  0  0  0  0  0  0  0  0  0  0
    2.4193    0.0407    0.0214 N   0  0  0  0  0  0  0  0  0  0  0  0
    3.5915    0.7234    0.0267 C   0  0  0  0  0  0  0  0  0  0  0  0
    3.6459    2.1257    0.0289 C   0  0  0  0  0  0  0  0  0  0  0  0
    2.4426    2.8540    0.0254 C   0  0  0  0  0  0  0  0  0  0  0  0
    0.1569   -0.0177    0.0128 O   0  5  0  0  0  0  0  0  0  0  0  0
    0.2859    2.6704    0.0170 H   0  0  0  0  0  0  0  0  0  0  0  0
    4.4978    0.1356    0.0293 H   0  0  0  0  0  0  0  0  0  0  0  0
    4.5995    2.6374    0.0332 H   0  0  0  0  0  0  0  0  0  0  0  0
    2.4486    3.9345    0.0269 H   0  0  0  0  0  0  0  0  0  0  0  0
  1  2  1  0  0  0  0
  1  6  2  0  0  0  0
  1  8  1  0  0  0  0
  2  3  2  0  0  0  0
  2  7  1  0  0  0  0
  3  4  1  0  0  0  0
  4  5  2  0  0  0  0
  4  9  1  0  0  0  0
  5  6  1  0  0  0  0
  5 10  1  0  0  0  0
  6 11  1  0  0  0  0
M  CHG  1   7  -1
M  END
>  <s_m_entry_id>
6620

>  <s_m_entry_name>
Schrodinger_fragment_252

>  <s_m_Source_Path>
/aloy/home/agimeno/Documents/Starting_Project/Part1_SMILES-to-signatures/1.2/Databases/Compounds/Fragment_library/Schrodinger

>  <s_m_Source_File>
schrodinger_fragment_collection_epik.maegz

>  <i_m_Source_File_Index>
251

>  <i_m_number_of_atoms>
12

>  <r_m_molecular_weight>
95.1017

>  <s_m_molecular_formula>
C5H5N1O1

>  <r_epik_Ionization_Penalty>
6.0973

>  <r_epik_Ionization_Penalty_Charging>
0.1628

>  <r_epik_Ionization_Penalty_Neutral>
5.9345

>  <r_epik_State_Penalty>
5.9345

>  <i_epik_Tot_Q>
-1

>  <r_epik_Metal_State_Penalty>
1.8676

>  <b_epik_Metal_Only>
1

>  <s_canvas_Unique_SMILES_Stereo>
[O-]c1ccccn1

>  <s_m_subgroup_title>
schrodinger_fragment_collection_epik

>  <s_m_subgroupid>
schrodinger_fragment_collection_epik

>  <b_m_subgroup_collapsed>
0

$$$$
Schrodinger_fragment_165
 OpenBabel04062209313D
Schrodinger Suite 2020-2.
 14 15  0  0  1  0  0  0  0  0999 V2000
    0.1844    2.0783    0.0276 C   0  0  0  0  0  0  0  0  0  0  0  0
    0.0788    0.7453    0.0267 N   0  0  0  0  0  0  0  0  0  0  0  0
    1.2484    0.0898    0.0252 C   0  0  0  0  0  0  0  0  0  0  0  0
    2.5125    0.7055    0.0247 C   0  0  0  0  0  0  0  0  0  0  0  0
    2.4683    2.1361    0.0258 C   0  0  0  0  0  0  0  0  0  0  0  0
    1.3066    2.8082    0.0273 N   0  0  0  0  0  0  0  0  0  0  0  0
    3.6652   -0.0025    0.0232 N   0  0  0  0  0  0  0  0  0  0  0  0
    4.7926    0.7327    0.0228 C   0  0  0  0  0  0  0  0  0  0  0  0
    4.7674    2.1404    0.0240 C   0  0  0  0  0  0  0  0  0  0  0  0
    3.6193    2.8461    0.0255 N   0  0  0  0  0  0  0  0  0  0  0  0
   -0.7448    2.6311    0.0288 H   0  0  0  0  0  0  0  0  0  0  0  0
    1.1782   -0.9882    0.0244 H   0  0  0  0  0  0  0  0  0  0  0  0
    5.7288    0.1913    0.0216 H   0  0  0  0  0  0  0  0  0  0  0  0
    5.6872    2.7077    0.0237 H   0  0  0  0  0  0  0  0  0  0  0  0
  1  2  2  0  0  0  0
  1  6  1  0  0  0  0
  1 11  1  0  0  0  0
  2  3  1  0  0  0  0
  3  4  2  0  0  0  0
  3 12  1  0  0  0  0
  4  5  1  0  0  0  0
  4  7  1  0  0  0  0
  5  6  2  0  0  0  0
  5 10  1  0  0  0  0
  7  8  2  0  0  0  0
  8  9  1  0  0  0  0
  8 13  1  0  0  0  0
  9 10  2  0  0  0  0
  9 14  1  0  0  0  0
M  END
>  <s_m_entry_id>
6578

>  <s_m_entry_name>
Schrodinger_fragment_220

>  <s_m_Source_Path>
/aloy/home/agimeno/Documents/Starting_Project/Part1_SMILES-to-signatures/1.2/Databases/Compounds/Fragment_library/Schrodinger

>  <s_m_Source_File>
schrodinger_fragment_collection_epik.maegz

>  <i_m_Source_File_Index>
209

>  <i_m_number_of_atoms>
14

>  <r_m_molecular_weight>
132.12558

>  <s_m_molecular_formula>
C6H4N4

>  <r_epik_Ionization_Penalty>
0.0000

>  <r_epik_Ionization_Penalty_Charging>
0.0000

>  <r_epik_Ionization_Penalty_Neutral>
0.0000

>  <r_epik_State_Penalty>
0.0000

>  <i_epik_Tot_Q>
0

>  <r_epik_Metal_State_Penalty>
0.0000

>  <b_epik_Metal_Only>
0

>  <s_canvas_Unique_SMILES_Stereo>
n1ccnc(c12)ncnc2

>  <s_m_subgroup_title>
schrodinger_fragment_collection_epik

>  <s_m_subgroupid>
schrodinger_fragment_collection_epik

>  <b_m_subgroup_collapsed>
0

$$$$
Schrodinger_fragment_313
 OpenBabel04062209313D
Schrodinger Suite 2020-2.
 21 22  0  0  1  0  0  0  0  0999 V2000
    4.5474   -3.5748    0.2325 N   0  0  0  0  0  0  0  0  0  0  0  0
    4.6025   -2.2170    0.1809 C   0  0  0  0  0  0  0  0  0  0  0  0
    3.4229   -1.5284    0.0516 N   0  0  0  0  0  0  0  0  0  0  0  0
    2.1874   -2.2273   -0.0248 C   0  0  0  0  0  0  0  0  0  0  0  0
    2.2057   -3.5818    0.0330 C   0  0  0  0  0  0  0  0  0  0  0  0
    3.4462   -4.3486    0.1706 C   0  0  0  0  0  0  0  0  0  0  0  0
    0.8838   -1.7476   -0.1560 N   0  0  0  0  0  0  0  0  0  0  0  0
    0.1705   -2.8804   -0.1699 C   0  0  0  0  0  0  0  0  0  0  0  0
    0.8876   -4.0185   -0.0614 N   0  0  0  0  0  0  0  0  0  0  0  0
    3.4723   -5.5815    0.2241 O   0  0  0  0  0  0  0  0  0  0  0  0
    5.6933   -1.6419    0.2501 O   0  0  0  0  0  0  0  0  0  0  0  0
    0.3748   -5.3763   -0.0488 C   0  0  0  0  0  0  0  0  0  0  0  0
    3.4297   -0.0647   -0.0086 C   0  0  0  0  0  0  0  0  0  0  0  0
    5.4268   -4.0550    0.3275 H   0  0  0  0  0  0  0  0  0  0  0  0
   -0.9070   -2.8825   -0.2617 H   0  0  0  0  0  0  0  0  0  0  0  0
   -0.7118   -5.3720   -0.1417 H   0  0  0  0  0  0  0  0  0  0  0  0
    0.6449   -5.8657    0.8872 H   0  0  0  0  0  0  0  0  0  0  0  0
    0.7959   -5.9392   -0.8821 H   0  0  0  0  0  0  0  0  0  0  0  0
    2.4293    0.3555   -0.1114 H   0  0  0  0  0  0  0  0  0  0  0  0
    4.0183    0.2805   -0.8598 H   0  0  0  0  0  0  0  0  0  0  0  0
    3.8682    0.3535    0.8986 H   0  0  0  0  0  0  0  0  0  0  0  0
  1  2  1  0  0  0  0
  1  6  1  0  0  0  0
  1 14  1  0  0  0  0
  2  3  1  0  0  0  0
  2 11  2  0  0  0  0
  3  4  1  0  0  0  0
  3 13  1  0  0  0  0
  4  5  2  0  0  0  0
  4  7  1  0  0  0  0
  5  6  1  0  0  0  0
  5  9  1  0  0  0  0
  6 10  2  0  0  0  0
  7  8  2  0  0  0  0
  8  9  1  0  0  0  0
  8 15  1  0  0  0  0
  9 12  1  0  0  0  0
 12 16  1  0  0  0  0
 12 17  1  0  0  0  0
 12 18  1  0  0  0  0
 13 19  1  0  0  0  0
 13 20  1  0  0  0  0
 13 21  1  0  0  0  0
M  END
>  <s_m_entry_id>
6815

>  <s_m_entry_name>
Schrodinger_fragment_388

>  <s_m_Source_Path>
/aloy/home/agimeno/Documents/Starting_Project/Part1_SMILES-to-signatures/1.2/Databases/Compounds/Fragment_library/Schrodinger

>  <s_m_Source_File>
schrodinger_fragment_collection_epik.maegz

>  <i_m_Source_File_Index>
446

>  <i_m_number_of_atoms>
21

>  <r_m_molecular_weight>
180.16741

>  <s_m_molecular_formula>
C7H8N4O2

>  <r_epik_Ionization_Penalty>
0.0014

>  <r_epik_Ionization_Penalty_Charging>
0.0014

>  <r_epik_Ionization_Penalty_Neutral>
0.0000

>  <r_epik_State_Penalty>
0.0000

>  <i_epik_Tot_Q>
0

>  <r_epik_Metal_State_Penalty>
0.3176

>  <b_epik_Metal_Only>
0

>  <s_canvas_Unique_SMILES_Stereo>
Cn1cnc(c12)n(C)c(=O)[nH]c2=O

>  <s_m_subgroup_title>
schrodinger_fragment_collection_epik

>  <s_m_subgroupid>
schrodinger_fragment_collection_epik

>  <b_m_subgroup_collapsed>
0

$$$$
Schrodinger_fragment_189_a
 OpenBabel04062209313D
Schrodinger Suite 2020-2.
 10 10  0  0  1  0  0  0  0  0999 V2000
    1.2017    1.9707    0.0203 C   0  0  0  0  0  0  0  0  0  0  0  0
    1.1123    0.4548    0.0208 C   0  0  0  0  0  0  0  0  0  0  0  0
    2.5131    0.0591    0.0240 N   0  0  0  0  0  0  0  0  0  0  0  0
    3.2253    1.1295    0.0251 C   0  0  0  0  0  0  0  0  0  0  0  0
    2.4868    2.2753    0.0230 N   0  0  0  0  0  0  0  0  0  0  0  0
    4.4309    1.3864    0.0276 O   0  5  0  0  0  0  0  0  0  0  0  0
    0.2512    2.7518    0.0180 O   0  0  0  0  0  0  0  0  0  0  0  0
    0.5871    0.0987    0.9085 H   0  0  0  0  0  0  0  0  0  0  0  0
    0.5909    0.0980   -0.8690 H   0  0  0  0  0  0  0  0  0  0  0  0
    2.8713    3.2108    0.0235 H   0  0  0  0  0  0  0  0  0  0  0  0
  1  2  1  0  0  0  0
  1  5  1  0  0  0  0
  1  7  2  0  0  0  0
  2  3  1  0  0  0  0
  2  8  1  0  0  0  0
  2  9  1  0  0  0  0
  3  4  2  0  0  0  0
  4  5  1  0  0  0  0
  4  6  1  0  0  0  0
  5 10  1  0  0  0  0
M  CHG  1   6  -1
M  END
>  <s_m_entry_id>
6608

>  <s_m_entry_name>
Schrodinger_fragment_244

>  <s_m_Source_Path>
/aloy/home/agimeno/Documents/Starting_Project/Part1_SMILES-to-signatures/1.2/Databases/Compounds/Fragment_library/Schrodinger

>  <s_m_Source_File>
schrodinger_fragment_collection_epik.maegz

>  <i_m_Source_File_Index>
239

>  <i_m_number_of_atoms>
11

>  <r_m_molecular_weight>
100.07753

>  <s_m_molecular_formula>
C3H4N2O2

>  <r_epik_Ionization_Penalty>
6.0027

>  <r_epik_Ionization_Penalty_Charging>
6.0027

>  <r_epik_Ionization_Penalty_Neutral>
0.0000

>  <r_epik_State_Penalty>
6.0027

>  <i_epik_Tot_Q>
-1

>  <r_epik_Metal_State_Penalty>
2.3190

>  <b_epik_Metal_Only>
1

>  <s_canvas_Unique_SMILES_Stereo>
O=C1CN=C([O-])N1

>  <s_m_subgroup_title>
schrodinger_fragment_collection_epik

>  <s_m_subgroupid>
schrodinger_fragment_collection_epik

>  <b_m_subgroup_collapsed>
0

$$$$
Schrodinger_fragment_425
 OpenBabel04062209313D
Schrodinger Suite 2020-2.
 23 24  0  0  1  0  0  0  0  0999 V2000
    5.2943   -5.0113    0.0428 C   0  0  0  0  0  0  0  0  0  0  0  0
    5.2794   -3.5917    0.2128 C   0  0  0  0  0  0  0  0  0  0  0  0
    4.0378   -2.9173    0.1426 C   0  0  0  0  0  0  0  0  0  0  0  0
    2.8379   -3.6057   -0.1066 C   0  0  0  0  0  0  0  0  0  0  0  0
    2.8593   -4.9965   -0.2879 C   0  0  0  0  0  0  0  0  0  0  0  0
    4.0799   -5.6880   -0.2121 C   0  0  0  0  0  0  0  0  0  0  0  0
    6.5363   -5.8970    0.1046 C   0  0  0  0  0  0  0  0  0  0  0  0
    7.7553   -5.3084    0.8121 C   0  0  0  0  0  0  0  0  0  0  0  0
    8.3881   -4.2283   -0.0494 C   0  0  0  0  0  0  0  0  0  0  0  0
    7.7856   -3.0430   -0.0880 N   0  0  0  0  0  0  0  0  0  0  0  0
    6.4952   -2.6949    0.4977 C   0  0  0  0  0  0  0  0  0  0  0  0
    9.4379   -4.4424   -0.6556 O   0  0  0  0  0  0  0  0  0  0  0  0
    3.9959   -1.8452    0.2808 H   0  0  0  0  0  0  0  0  0  0  0  0
    1.9023   -3.0657   -0.1589 H   0  0  0  0  0  0  0  0  0  0  0  0
    1.9409   -5.5339   -0.4820 H   0  0  0  0  0  0  0  0  0  0  0  0
    4.0782   -6.7609   -0.3516 H   0  0  0  0  0  0  0  0  0  0  0  0
    6.2697   -6.8233    0.6153 H   0  0  0  0  0  0  0  0  0  0  0  0
    6.7996   -6.1890   -0.9136 H   0  0  0  0  0  0  0  0  0  0  0  0
    7.5024   -4.9321    1.8038 H   0  0  0  0  0  0  0  0  0  0  0  0
    8.4951   -6.0948    0.9660 H   0  0  0  0  0  0  0  0  0  0  0  0
    8.2337   -2.3186   -0.6328 H   0  0  0  0  0  0  0  0  0  0  0  0
    6.2737   -1.6785    0.1692 H   0  0  0  0  0  0  0  0  0  0  0  0
    6.6159   -2.6293    1.5801 H   0  0  0  0  0  0  0  0  0  0  0  0
  1  2  2  0  0  0  0
  1  6  1  0  0  0  0
  1  7  1  0  0  0  0
  2  3  1  0  0  0  0
  2 11  1  0  0  0  0
  3  4  2  0  0  0  0
  3 13  1  0  0  0  0
  4  5  1  0  0  0  0
  4 14  1  0  0  0  0
  5  6  2  0  0  0  0
  5 15  1  0  0  0  0
  6 16  1  0  0  0  0
  7  8  1  0  0  0  0
  7 17  1  0  0  0  0
  7 18  1  0  0  0  0
  8  9  1  0  0  0  0
  8 19  1  0  0  0  0
  8 20  1  0  0  0  0
  9 10  1  0  0  0  0
  9 12  2  0  0  0  0
 10 11  1  0  0  0  0
 10 21  1  0  0  0  0
 11 22  1  0  0  0  0
 11 23  1  0  0  0  0
M  END
>  <s_m_entry_id>
7011

>  <s_m_entry_name>
Schrodinger_fragment_529

>  <s_m_Source_Path>
/aloy/home/agimeno/Documents/Starting_Project/Part1_SMILES-to-signatures/1.2/Databases/Compounds/Fragment_library/Schrodinger

>  <s_m_Source_File>
schrodinger_fragment_collection_epik.maegz

>  <i_m_Source_File_Index>
642

>  <i_m_number_of_atoms>
23

>  <r_m_molecular_weight>
161.20527

>  <s_m_molecular_formula>
C10H11N1O1

>  <r_epik_Ionization_Penalty>
0.0000

>  <r_epik_Ionization_Penalty_Charging>
0.0000

>  <r_epik_Ionization_Penalty_Neutral>
0.0000

>  <r_epik_State_Penalty>
0.0000

>  <i_epik_Tot_Q>
0

>  <r_epik_Metal_State_Penalty>
0.0000

>  <b_epik_Metal_Only>
0

>  <s_canvas_Unique_SMILES_Stereo>
c1cccc(c12)CNC(=O)CC2

>  <s_m_subgroup_title>
schrodinger_fragment_collection_epik

>  <s_m_subgroupid>
schrodinger_fragment_collection_epik

>  <b_m_subgroup_collapsed>
0

$$$$
Schrodinger_fragment_152_a
 OpenBabel04062209313D
Schrodinger Suite 2020-2.
 22 23  0  0  1  0  0  0  0  0999 V2000
   -0.0347    2.0810    0.3591 C   0  0  0  0  0  0  0  0  0  0  0  0
    0.0199    0.7027   -0.3107 C   0  0  0  0  0  0  0  0  0  0  0  0
    1.2227   -0.0350    0.1231 N   0  3  0  0  0  0  0  0  0  0  0  0
    2.5099    0.7326    0.0517 C   0  0  0  0  0  0  0  0  0  0  0  0
    2.4942    2.1486    0.0058 C   0  0  0  0  0  0  0  0  0  0  0  0
    1.1874    2.9297   -0.0226 C   0  0  0  0  0  0  0  0  0  0  0  0
    3.7244    0.0205    0.0557 C   0  0  0  0  0  0  0  0  0  0  0  0
    4.9428    0.7263    0.0103 C   0  0  0  0  0  0  0  0  0  0  0  0
    4.9404    2.1351   -0.0372 C   0  0  0  0  0  0  0  0  0  0  0  0
    3.7214    2.8435   -0.0404 C   0  0  0  0  0  0  0  0  0  0  0  0
   -0.9523    2.6046    0.0874 H   0  0  0  0  0  0  0  0  0  0  0  0
   -0.0689    1.9520    1.4420 H   0  0  0  0  0  0  0  0  0  0  0  0
   -0.8697    0.1234   -0.0593 H   0  0  0  0  0  0  0  0  0  0  0  0
    0.0267    0.8109   -1.3970 H   0  0  0  0  0  0  0  0  0  0  0  0
    1.0794   -0.3355    1.0734 H   0  0  0  0  0  0  0  0  0  0  0  0
    1.0573    3.3164   -1.0340 H   0  0  0  0  0  0  0  0  0  0  0  0
    1.2596    3.7962    0.6356 H   0  0  0  0  0  0  0  0  0  0  0  0
    3.7256   -1.0580    0.0970 H   0  0  0  0  0  0  0  0  0  0  0  0
    5.8791    0.1862    0.0133 H   0  0  0  0  0  0  0  0  0  0  0  0
    5.8776    2.6750   -0.0728 H   0  0  0  0  0  0  0  0  0  0  0  0
    3.7316    3.9238   -0.0819 H   0  0  0  0  0  0  0  0  0  0  0  0
    1.2972   -0.8675   -0.4385 H   0  0  0  0  0  0  0  0  0  0  0  0
  1  2  1  0  0  0  0
  1  6  1  0  0  0  0
  1 11  1  0  0  0  0
  1 12  1  0  0  0  0
  2  3  1  0  0  0  0
  2 13  1  0  0  0  0
  2 14  1  0  0  0  0
  3  4  1  0  0  0  0
  3 15  1  0  0  0  0
  3 22  1  0  0  0  0
  4  5  2  0  0  0  0
  4  7  1  0  0  0  0
  5  6  1  0  0  0  0
  5 10  1  0  0  0  0
  6 16  1  0  0  0  0
  6 17  1  0  0  0  0
  7  8  2  0  0  0  0
  7 18  1  0  0  0  0
  8  9  1  0  0  0  0
  8 19  1  0  0  0  0
  9 10  2  0  0  0  0
  9 20  1  0  0  0  0
 10 21  1  0  0  0  0
M  CHG  1   3   1
M  END
>  <s_m_entry_id>
6561

>  <s_m_entry_name>
Schrodinger_fragment_200

>  <s_m_Source_Path>
/aloy/home/agimeno/Documents/Starting_Project/Part1_SMILES-to-signatures/1.2/Databases/Compounds/Fragment_library/Schrodinger

>  <s_m_Source_File>
schrodinger_fragment_collection_epik.maegz

>  <i_m_Source_File_Index>
192

>  <i_m_number_of_atoms>
21

>  <r_m_molecular_weight>
133.19472

>  <s_m_molecular_formula>
C9H11N1

>  <r_epik_Ionization_Penalty>
4.8964

>  <r_epik_Ionization_Penalty_Charging>
4.8964

>  <r_epik_Ionization_Penalty_Neutral>
0.0000

>  <r_epik_State_Penalty>
2.4482

>  <i_epik_Tot_Q>
1

>  <r_epik_Metal_State_Penalty>
2.4482

>  <b_epik_Metal_Only>
0

>  <s_canvas_Unique_SMILES_Stereo>
C1CC[NH2+]c(c12)cccc2

>  <s_m_subgroup_title>
schrodinger_fragment_collection_epik

>  <s_m_subgroupid>
schrodinger_fragment_collection_epik

>  <b_m_subgroup_collapsed>
0

$$$$
Schrodinger_fragment_113
 OpenBabel04062209313D
Schrodinger Suite 2020-2.
 16 17  0  0  1  0  0  0  0  0999 V2000
    2.1594    2.1497    0.0249 C   0  0  0  0  0  0  0  0  0  0  0  0
    2.2098    0.7232    0.0240 C   0  0  0  0  0  0  0  0  0  0  0  0
    3.4450    0.0497    0.0250 C   0  0  0  0  0  0  0  0  0  0  0  0
    4.5987    0.7522    0.0267 N   0  3  0  0  0  0  0  0  0  0  0  0
    4.6169    2.1052    0.0276 C   0  0  0  0  0  0  0  0  0  0  0  0
    3.4015    2.8288    0.0268 C   0  0  0  0  0  0  0  0  0  0  0  0
    0.7775    2.5402    0.0237 C   0  0  0  0  0  0  0  0  0  0  0  0
    0.0315    1.3880    0.0221 C   0  0  0  0  0  0  0  0  0  0  0  0
    0.8941    0.3042    0.0223 N   0  0  0  0  0  0  0  0  0  0  0  0
    3.5445   -1.0268    0.0244 H   0  0  0  0  0  0  0  0  0  0  0  0
    5.5966    2.5684    0.0290 H   0  0  0  0  0  0  0  0  0  0  0  0
    3.4184    3.9095    0.0275 H   0  0  0  0  0  0  0  0  0  0  0  0
    0.4030    3.5556    0.0239 H   0  0  0  0  0  0  0  0  0  0  0  0
   -1.0445    1.2514    0.0208 H   0  0  0  0  0  0  0  0  0  0  0  0
    0.5643   -0.6563    0.0213 H   0  0  0  0  0  0  0  0  0  0  0  0
    5.4894    0.2443    0.0274 H   0  0  0  0  0  0  0  0  0  0  0  0
  1  2  2  0  0  0  0
  1  6  1  0  0  0  0
  1  7  1  0  0  0  0
  2  3  1  0  0  0  0
  2  9  1  0  0  0  0
  3  4  2  0  0  0  0
  3 10  1  0  0  0  0
  4  5  1  0  0  0  0
  4 16  1  0  0  0  0
  5  6  2  0  0  0  0
  5 11  1  0  0  0  0
  6 12  1  0  0  0  0
  7  8  2  0  0  0  0
  7 13  1  0  0  0  0
  8  9  1  0  0  0  0
  8 14  1  0  0  0  0
  9 15  1  0  0  0  0
M  CHG  1   4   1
M  END
>  <s_m_entry_id>
6506

>  <s_m_entry_name>
Schrodinger_fragment_128

>  <s_m_Source_Path>
/aloy/home/agimeno/Documents/Starting_Project/Part1_SMILES-to-signatures/1.2/Databases/Compounds/Fragment_library/Schrodinger

>  <s_m_Source_File>
schrodinger_fragment_collection_epik.maegz

>  <i_m_Source_File_Index>
137

>  <i_m_number_of_atoms>
15

>  <r_m_molecular_weight>
118.13927

>  <s_m_molecular_formula>
C7H6N2

>  <r_epik_Ionization_Penalty>
0.0630

>  <r_epik_Ionization_Penalty_Charging>
0.0630

>  <r_epik_Ionization_Penalty_Neutral>
0.0000

>  <r_epik_State_Penalty>
0.0630

>  <i_epik_Tot_Q>
1

>  <r_epik_Metal_State_Penalty>
0.4425

>  <b_epik_Metal_Only>
0

>  <s_canvas_Unique_SMILES_Stereo>
c1c[nH]c(c12)c[nH+]cc2

>  <s_m_subgroup_title>
schrodinger_fragment_collection_epik

>  <s_m_subgroupid>
schrodinger_fragment_collection_epik

>  <b_m_subgroup_collapsed>
0

$$$$
Schrodinger_fragment_275
 OpenBabel04062209313D
Schrodinger Suite 2020-2.
 26 27  0  0  1  0  0  0  0  0999 V2000
    2.1969   -1.5165    0.3947 C   0  0  1  0  0  0  0  0  0  0  0  0
    2.2280   -2.9585    0.1605 N   0  0  0  0  0  0  0  0  0  0  0  0
    3.3517   -3.6891    0.0005 C   0  0  0  0  0  0  0  0  0  0  0  0
    4.7060   -2.9569   -0.0088 C   0  0  0  0  0  0  0  0  0  0  0  0
    3.4706   -0.8079   -0.0991 C   0  0  0  0  0  0  0  0  0  0  0  0
    0.8815   -1.0535   -0.2342 C   0  0  0  0  0  0  0  0  0  0  0  0
   -0.0487   -2.2427    0.0006 C   0  0  0  0  0  0  0  0  0  0  0  0
    0.8719   -3.4712   -0.0331 C   0  0  0  0  0  0  0  0  0  0  0  0
    3.3243   -4.9106   -0.1774 O   0  0  0  0  0  0  0  0  0  0  0  0
    2.1238   -1.3818    1.4760 H   0  0  0  0  0  0  0  0  0  0  0  0
    5.9232   -0.8145    0.1529 C   0  0  0  0  0  0  0  0  0  0  0  0
    5.4082   -3.5002    0.6239 H   0  0  0  0  0  0  0  0  0  0  0  0
    5.0908   -3.0130   -1.0275 H   0  0  0  0  0  0  0  0  0  0  0  0
    3.5039   -0.7814   -1.1896 H   0  0  0  0  0  0  0  0  0  0  0  0
    3.4753    0.2274    0.2447 H   0  0  0  0  0  0  0  0  0  0  0  0
    0.5039   -0.1283    0.2035 H   0  0  0  0  0  0  0  0  0  0  0  0
    1.0074   -0.8899   -1.3059 H   0  0  0  0  0  0  0  0  0  0  0  0
   -0.5100   -2.1585    0.9860 H   0  0  0  0  0  0  0  0  0  0  0  0
   -0.8530   -2.2989   -0.7343 H   0  0  0  0  0  0  0  0  0  0  0  0
    0.8050   -3.9705   -1.0017 H   0  0  0  0  0  0  0  0  0  0  0  0
    0.6068   -4.1975    0.7369 H   0  0  0  0  0  0  0  0  0  0  0  0
    5.8964    0.1920    0.5711 H   0  0  0  0  0  0  0  0  0  0  0  0
    6.1139   -0.7311   -0.9173 H   0  0  0  0  0  0  0  0  0  0  0  0
    6.7653   -1.3369    0.6073 H   0  0  0  0  0  0  0  0  0  0  0  0
    4.6563   -1.5307    0.4167 N   0  3  2  0  0  0  0  0  0  0  0  0
    4.5481   -1.5424    1.4199 H   0  0  0  0  0  0  0  0  0  0  0  0
  1  2  1  0  0  0  0
  1  5  1  0  0  0  0
  1  6  1  0  0  0  0
  1 10  1  1  0  0  0
  2  3  1  0  0  0  0
  2  8  1  0  0  0  0
  3  4  1  0  0  0  0
  3  9  2  0  0  0  0
  4 12  1  0  0  0  0
  4 13  1  0  0  0  0
  4 25  1  0  0  0  0
  5 14  1  0  0  0  0
  5 15  1  0  0  0  0
  5 25  1  0  0  0  0
  6  7  1  0  0  0  0
  6 16  1  0  0  0  0
  6 17  1  0  0  0  0
  7  8  1  0  0  0  0
  7 18  1  0  0  0  0
  7 19  1  0  0  0  0
  8 20  1  0  0  0  0
  8 21  1  0  0  0  0
 11 22  1  0  0  0  0
 11 23  1  0  0  0  0
 11 24  1  0  0  0  0
 11 25  1  0  0  0  0
 25 26  1  1  0  0  0
M  CHG  1  25   1
M  END
>  <s_m_entry_id>
6724

>  <s_m_entry_name>
Schrodinger_fragment_336

>  <s_m_Source_Path>
/aloy/home/agimeno/Documents/Starting_Project/Part1_SMILES-to-signatures/1.2/Databases/Compounds/Fragment_library/Schrodinger

>  <s_m_Source_File>
schrodinger_fragment_collection_epik.maegz

>  <i_m_Source_File_Index>
355

>  <i_m_number_of_atoms>
26

>  <r_m_molecular_weight>
155.22155

>  <s_m_molecular_formula>
C8H15N2O1

>  <r_epik_Ionization_Penalty>
0.0133

>  <r_epik_Ionization_Penalty_Charging>
0.0133

>  <r_epik_Ionization_Penalty_Neutral>
0.0000

>  <r_epik_State_Penalty>
0.0133

>  <i_epik_Tot_Q>
1

>  <r_epik_Metal_State_Penalty>
0.0133

>  <b_epik_Metal_Only>
0

>  <s_canvas_Unique_SMILES_Stereo>
C[N@@H+](C1)CC(=O)N([C@@H]12)CCC2

>  <s_m_subgroup_title>
schrodinger_fragment_collection_epik

>  <s_m_subgroupid>
schrodinger_fragment_collection_epik

>  <b_m_subgroup_collapsed>
0

$$$$
Schrodinger_fragment_181_a
 OpenBabel04062209313D
Schrodinger Suite 2020-2.
  9  9  0  0  1  0  0  0  0  0999 V2000
    3.7057    2.2032    0.0189 C   0  0  0  0  0  0  0  0  0  0  0  0
    3.5386    0.6854    0.0207 C   0  0  0  0  0  0  0  0  0  0  0  0
    2.0580    2.9191    0.0215 S   0  0  0  0  0  0  0  0  0  0  0  0
    1.3391    1.2865    0.0246 C   0  0  0  0  0  0  0  0  0  0  0  0
    2.2387    0.3212    0.0237 N   0  5  0  0  0  0  0  0  0  0  0  0
    0.1117    1.1956    0.0272 O   0  0  0  0  0  0  0  0  0  0  0  0
    4.5150   -0.0692    0.0195 O   0  0  0  0  0  0  0  0  0  0  0  0
    4.2563    2.5263    0.9022 H   0  0  0  0  0  0  0  0  0  0  0  0
    4.2527    2.5245   -0.8674 H   0  0  0  0  0  0  0  0  0  0  0  0
  1  2  1  0  0  0  0
  1  3  1  0  0  0  0
  1  8  1  0  0  0  0
  1  9  1  0  0  0  0
  2  5  1  0  0  0  0
  2  7  2  0  0  0  0
  3  4  1  0  0  0  0
  4  5  1  0  0  0  0
  4  6  2  0  0  0  0
M  CHG  1   5  -1
M  END
>  <s_m_entry_id>
6599

>  <s_m_entry_name>
Schrodinger_fragment_236

>  <s_m_Source_Path>
/aloy/home/agimeno/Documents/Starting_Project/Part1_SMILES-to-signatures/1.2/Databases/Compounds/Fragment_library/Schrodinger

>  <s_m_Source_File>
schrodinger_fragment_collection_epik.maegz

>  <i_m_Source_File_Index>
230

>  <i_m_number_of_atoms>
10

>  <r_m_molecular_weight>
117.12686

>  <s_m_molecular_formula>
C3H3N1O2S1

>  <r_epik_Ionization_Penalty>
5.8936

>  <r_epik_Ionization_Penalty_Charging>
5.8936

>  <r_epik_Ionization_Penalty_Neutral>
0.0000

>  <r_epik_State_Penalty>
5.8936

>  <i_epik_Tot_Q>
-1

>  <r_epik_Metal_State_Penalty>
1.8285

>  <b_epik_Metal_Only>
1

>  <s_canvas_Unique_SMILES_Stereo>
O=C1CSC([N-]1)=O

>  <s_m_subgroup_title>
schrodinger_fragment_collection_epik

>  <s_m_subgroupid>
schrodinger_fragment_collection_epik

>  <b_m_subgroup_collapsed>
0

$$$$
Schrodinger_fragment_440
 OpenBabel04062209313D
Schrodinger Suite 2020-2.
 24 25  0  0  1  0  0  0  0  0999 V2000
    0.1243   -1.8495   -0.4323 C   0  0  0  0  0  0  0  0  0  0  0  0
    0.1758   -3.2143   -0.1022 C   0  0  0  0  0  0  0  0  0  0  0  0
    1.3950   -3.7933    0.2915 C   0  0  0  0  0  0  0  0  0  0  0  0
    2.5728   -3.0187    0.3470 C   0  0  0  0  0  0  0  0  0  0  0  0
    2.5266   -1.6268    0.0390 C   0  0  0  0  0  0  0  0  0  0  0  0
    1.2886   -1.0632   -0.3562 C   0  0  0  0  0  0  0  0  0  0  0  0
    3.7544   -3.6802    0.7595 N   0  0  0  0  0  0  0  0  0  0  0  0
    4.9760   -3.4924    0.2440 C   0  0  0  0  0  0  0  0  0  0  0  0
    5.1492   -2.4800   -0.8917 C   0  0  0  0  0  0  0  0  0  0  0  0
    4.9099   -1.0956   -0.2802 C   0  0  0  0  0  0  0  0  0  0  0  0
    3.6679   -0.7638    0.1601 N   0  0  0  0  0  0  0  0  0  0  0  0
    5.8599   -0.3014   -0.2512 O   0  0  0  0  0  0  0  0  0  0  0  0
    5.9393   -4.1591    0.6294 O   0  0  0  0  0  0  0  0  0  0  0  0
    3.4573    0.5932    0.6836 C   0  0  0  0  0  0  0  0  0  0  0  0
   -0.8118   -1.4016   -0.7370 H   0  0  0  0  0  0  0  0  0  0  0  0
   -0.7196   -3.8186   -0.1517 H   0  0  0  0  0  0  0  0  0  0  0  0
    1.4200   -4.8455    0.5402 H   0  0  0  0  0  0  0  0  0  0  0  0
    1.2169   -0.0144   -0.6088 H   0  0  0  0  0  0  0  0  0  0  0  0
    3.6505   -4.4471    1.4101 H   0  0  0  0  0  0  0  0  0  0  0  0
    6.1564   -2.5438   -1.3036 H   0  0  0  0  0  0  0  0  0  0  0  0
    4.4513   -2.6751   -1.7061 H   0  0  0  0  0  0  0  0  0  0  0  0
    4.2774    0.9120    1.3292 H   0  0  0  0  0  0  0  0  0  0  0  0
    2.5530    0.6568    1.2894 H   0  0  0  0  0  0  0  0  0  0  0  0
    3.3717    1.3089   -0.1348 H   0  0  0  0  0  0  0  0  0  0  0  0
  1  2  2  0  0  0  0
  1  6  1  0  0  0  0
  1 15  1  0  0  0  0
  2  3  1  0  0  0  0
  2 16  1  0  0  0  0
  3  4  2  0  0  0  0
  3 17  1  0  0  0  0
  4  5  1  0  0  0  0
  4  7  1  0  0  0  0
  5  6  2  0  0  0  0
  5 11  1  0  0  0  0
  6 18  1  0  0  0  0
  7  8  1  0  0  0  0
  7 19  1  0  0  0  0
  8  9  1  0  0  0  0
  8 13  2  0  0  0  0
  9 10  1  0  0  0  0
  9 20  1  0  0  0  0
  9 21  1  0  0  0  0
 10 11  1  0  0  0  0
 10 12  2  0  0  0  0
 11 14  1  0  0  0  0
 14 22  1  0  0  0  0
 14 23  1  0  0  0  0
 14 24  1  0  0  0  0
M  END
>  <s_m_entry_id>
7035

>  <s_m_entry_name>
Schrodinger_fragment_545

>  <s_m_Source_Path>
/aloy/home/agimeno/Documents/Starting_Project/Part1_SMILES-to-signatures/1.2/Databases/Compounds/Fragment_library/Schrodinger

>  <s_m_Source_File>
schrodinger_fragment_collection_epik.maegz

>  <i_m_Source_File_Index>
666

>  <i_m_number_of_atoms>
24

>  <r_m_molecular_weight>
190.2034

>  <s_m_molecular_formula>
C10H10N2O2

>  <r_epik_Ionization_Penalty>
0.0010

>  <r_epik_Ionization_Penalty_Charging>
0.0000

>  <r_epik_Ionization_Penalty_Neutral>
0.0010

>  <r_epik_State_Penalty>
0.0000

>  <i_epik_Tot_Q>
0

>  <r_epik_Metal_State_Penalty>
0.0000

>  <b_epik_Metal_Only>
0

>  <s_canvas_Unique_SMILES_Stereo>
CN1C(=O)CC(=O)Nc(c12)cccc2

>  <s_m_subgroup_title>
schrodinger_fragment_collection_epik

>  <s_m_subgroupid>
schrodinger_fragment_collection_epik

>  <b_m_subgroup_collapsed>
0

$$$$
Schrodinger_fragment_227_b
 OpenBabel04062209313D
Schrodinger Suite 2020-2.
 15 15  0  0  1  0  0  0  0  0999 V2000
    1.3894   -0.8507    0.2172 C   0  0  0  0  0  0  0  0  0  0  0  0
    1.4499   -2.1959    0.0412 N   0  0  0  0  0  0  0  0  0  0  0  0
    2.6301   -2.8460   -0.1354 C   0  0  0  0  0  0  0  0  0  0  0  0
    3.8132   -2.1910   -0.0608 N   0  5  0  0  0  0  0  0  0  0  0  0
    3.9393   -0.8587    0.1386 C   0  0  0  0  0  0  0  0  0  0  0  0
    2.6626    0.0021    0.0963 C   0  0  0  0  0  0  0  0  0  0  0  0
    5.0227   -0.2890    0.3083 O   0  0  0  0  0  0  0  0  0  0  0  0
    0.3257   -0.2533    0.4415 O   0  0  0  0  0  0  0  0  0  0  0  0
    2.6184   -4.0636   -0.3473 O   0  0  0  0  0  0  0  0  0  0  0  0
    0.2035   -2.9903    0.0404 C   0  0  0  0  0  0  0  0  0  0  0  0
    2.6293    0.5583   -0.8404 H   0  0  0  0  0  0  0  0  0  0  0  0
    2.6835    0.7284    0.9091 H   0  0  0  0  0  0  0  0  0  0  0  0
    0.2371   -3.7479    0.8248 H   0  0  0  0  0  0  0  0  0  0  0  0
    0.0830   -3.5034   -0.9150 H   0  0  0  0  0  0  0  0  0  0  0  0
   -0.7078   -2.4138    0.2017 H   0  0  0  0  0  0  0  0  0  0  0  0
  1  2  1  0  0  0  0
  1  6  1  0  0  0  0
  1  8  2  0  0  0  0
  2  3  1  0  0  0  0
  2 10  1  0  0  0  0
  3  4  1  0  0  0  0
  3  9  2  0  0  0  0
  4  5  1  0  0  0  0
  5  6  1  0  0  0  0
  5  7  2  0  0  0  0
  6 11  1  0  0  0  0
  6 12  1  0  0  0  0
 10 13  1  0  0  0  0
 10 14  1  0  0  0  0
 10 15  1  0  0  0  0
M  CHG  1   4  -1
M  END
>  <s_m_entry_id>
6665

>  <s_m_entry_name>
Schrodinger_fragment_288

>  <s_m_Source_Path>
/aloy/home/agimeno/Documents/Starting_Project/Part1_SMILES-to-signatures/1.2/Databases/Compounds/Fragment_library/Schrodinger

>  <s_m_Source_File>
schrodinger_fragment_collection_epik.maegz

>  <i_m_Source_File_Index>
296

>  <i_m_number_of_atoms>
16

>  <r_m_molecular_weight>
142.11517

>  <s_m_molecular_formula>
C5H6N2O3

>  <r_epik_Ionization_Penalty>
7.0285

>  <r_epik_Ionization_Penalty_Charging>
0.7443

>  <r_epik_Ionization_Penalty_Neutral>
6.2843

>  <r_epik_State_Penalty>
2.8339

>  <i_epik_Tot_Q>
-1

>  <r_epik_Metal_State_Penalty>
2.0948

>  <b_epik_Metal_Only>
1

>  <s_canvas_Unique_SMILES_Stereo>
[N-]1C(=O)N(C)C(=O)CC1=O

>  <s_m_subgroup_title>
schrodinger_fragment_collection_epik

>  <s_m_subgroupid>
schrodinger_fragment_collection_epik

>  <b_m_subgroup_collapsed>
0

$$$$
Schrodinger_fragment_314_b
 OpenBabel04062209313D
Schrodinger Suite 2020-2.
 20 21  0  0  1  0  0  0  0  0999 V2000
    4.5822   -3.6402    0.0287 N   0  0  0  0  0  0  0  0  0  0  0  0
    4.6191   -2.2658    0.0273 C   0  0  0  0  0  0  0  0  0  0  0  0
    3.4410   -1.5709    0.0238 N   0  0  0  0  0  0  0  0  0  0  0  0
    2.1988   -2.2086    0.0215 C   0  0  0  0  0  0  0  0  0  0  0  0
    2.1834   -3.6130    0.0230 C   0  0  0  0  0  0  0  0  0  0  0  0
    3.3435   -4.3454    0.0265 C   0  0  0  0  0  0  0  0  0  0  0  0
    1.0233   -1.6921    0.0182 N   0  0  0  0  0  0  0  0  0  0  0  0
    0.2346   -2.8991    0.0176 C   0  0  0  0  0  0  0  0  0  0  0  0
    0.8657   -4.0101    0.0203 N   0  0  0  0  0  0  0  0  0  0  0  0
    3.5442   -5.5806    0.0283 O   0  5  0  0  0  0  0  0  0  0  0  0
    5.7061   -1.6736    0.0292 O   0  0  0  0  0  0  0  0  0  0  0  0
    3.4071   -0.0982    0.0221 C   0  0  0  0  0  0  0  0  0  0  0  0
    5.9063   -4.3239    0.0325 C   0  0  0  0  0  0  0  0  0  0  0  0
   -0.8588   -2.8644    0.0150 H   0  0  0  0  0  0  0  0  0  0  0  0
    4.3921    0.3691    0.0240 H   0  0  0  0  0  0  0  0  0  0  0  0
    2.8801    0.2706    0.9032 H   0  0  0  0  0  0  0  0  0  0  0  0
    2.8843    0.2688   -0.8622 H   0  0  0  0  0  0  0  0  0  0  0  0
    5.9078   -5.4135    0.0336 H   0  0  0  0  0  0  0  0  0  0  0  0
    6.4790   -4.0262    0.9132 H   0  0  0  0  0  0  0  0  0  0  0  0
    6.4832   -4.0281   -0.8461 H   0  0  0  0  0  0  0  0  0  0  0  0
  1  2  1  0  0  0  0
  1 13  1  0  0  0  0
  1  6  1  0  0  0  0
  2  3  1  0  0  0  0
  2 11  2  0  0  0  0
  3  4  1  0  0  0  0
  3 12  1  0  0  0  0
  4  7  2  0  0  0  0
  4  5  1  0  0  0  0
  5  6  2  0  0  0  0
  5  9  1  0  0  0  0
  6 10  1  0  0  0  0
  7  8  1  0  0  0  0
  8  9  2  0  0  0  0
  8 14  1  0  0  0  0
 12 15  1  0  0  0  0
 12 16  1  0  0  0  0
 12 17  1  0  0  0  0
 13 18  1  0  0  0  0
 13 19  1  0  0  0  0
 13 20  1  0  0  0  0
M  CHG  1  10  -1
M  END
>  <s_m_entry_id>
6819

>  <s_m_entry_name>
Schrodinger_fragment_390

>  <s_m_Source_Path>
/aloy/home/agimeno/Documents/Starting_Project/Part1_SMILES-to-signatures/1.2/Databases/Compounds/Fragment_library/Schrodinger

>  <s_m_Source_File>
schrodinger_fragment_collection_epik.maegz

>  <i_m_Source_File_Index>
450

>  <i_m_number_of_atoms>
21

>  <r_m_molecular_weight>
180.16741

>  <s_m_molecular_formula>
C7H8N4O2

>  <r_epik_Ionization_Penalty>
16.2007

>  <r_epik_Ionization_Penalty_Charging>
0.0000

>  <r_epik_Ionization_Penalty_Neutral>
16.2007

>  <r_epik_State_Penalty>
8.5701

>  <i_epik_Tot_Q>
-1

>  <r_epik_Metal_State_Penalty>
4.4781

>  <b_epik_Metal_Only>
1

>  <s_canvas_Unique_SMILES_Stereo>
[O-]c1n(C)c(=O)n(C)c(-c12)ncn2

>  <s_m_subgroup_title>
schrodinger_fragment_collection_epik

>  <s_m_subgroupid>
schrodinger_fragment_collection_epik

>  <b_m_subgroup_collapsed>
0

$$$$
Schrodinger_fragment_228
 OpenBabel04062209313D
Schrodinger Suite 2020-2.
 18 18  0  0  1  0  0  0  0  0999 V2000
    3.9206   -0.8719   -0.0260 C   0  0  0  0  0  0  0  0  0  0  0  0
    3.8329   -2.2803    0.0156 N   0  0  0  0  0  0  0  0  0  0  0  0
    2.6217   -3.0035    0.0262 C   0  0  0  0  0  0  0  0  0  0  0  0
    1.4186   -2.2583   -0.0190 N   0  0  0  0  0  0  0  0  0  0  0  0
    1.4745   -0.8721   -0.0649 C   0  0  0  0  0  0  0  0  0  0  0  0
    2.6377   -0.1818   -0.0691 C   0  0  0  0  0  0  0  0  0  0  0  0
    0.3004   -0.1801   -0.1058 O   0  5  0  0  0  0  0  0  0  0  0  0
    5.0121   -0.2909   -0.0220 O   0  0  0  0  0  0  0  0  0  0  0  0
    2.5928   -4.2353    0.0749 O   0  0  0  0  0  0  0  0  0  0  0  0
    5.0907   -3.0004    0.0644 C   0  0  0  0  0  0  0  0  0  0  0  0
    0.2024   -3.0486   -0.0097 C   0  0  0  0  0  0  0  0  0  0  0  0
    2.6336    0.8985   -0.1041 H   0  0  0  0  0  0  0  0  0  0  0  0
    4.9363   -4.0769    0.0023 H   0  0  0  0  0  0  0  0  0  0  0  0
    5.5705   -2.7421    1.0098 H   0  0  0  0  0  0  0  0  0  0  0  0
    5.6891   -2.6727   -0.7875 H   0  0  0  0  0  0  0  0  0  0  0  0
   -0.6724   -2.4019   -0.0545 H   0  0  0  0  0  0  0  0  0  0  0  0
    0.1890   -3.6243    0.9184 H   0  0  0  0  0  0  0  0  0  0  0  0
    0.2236   -3.7002   -0.8861 H   0  0  0  0  0  0  0  0  0  0  0  0
  1  2  1  0  0  0  0
  1  6  1  0  0  0  0
  1  8  2  0  0  0  0
  2  3  1  0  0  0  0
  2 10  1  0  0  0  0
  3  4  1  0  0  0  0
  3  9  2  0  0  0  0
  4  5  1  0  0  0  0
  4 11  1  0  0  0  0
  5  6  2  0  0  0  0
  5  7  1  0  0  0  0
  6 12  1  0  0  0  0
 10 13  1  0  0  0  0
 10 14  1  0  0  0  0
 10 15  1  0  0  0  0
 11 16  1  0  0  0  0
 11 17  1  0  0  0  0
 11 18  1  0  0  0  0
M  CHG  1   7  -1
M  END
>  <s_m_entry_id>
6666

>  <s_m_entry_name>
Schrodinger_fragment_289

>  <s_m_Source_Path>
/aloy/home/agimeno/Documents/Starting_Project/Part1_SMILES-to-signatures/1.2/Databases/Compounds/Fragment_library/Schrodinger

>  <s_m_Source_File>
schrodinger_fragment_collection_epik.maegz

>  <i_m_Source_File_Index>
297

>  <i_m_number_of_atoms>
19

>  <r_m_molecular_weight>
156.14226

>  <s_m_molecular_formula>
C6H8N2O3

>  <r_epik_Ionization_Penalty>
0.0009

>  <r_epik_Ionization_Penalty_Charging>
0.0001

>  <r_epik_Ionization_Penalty_Neutral>
0.0008

>  <r_epik_State_Penalty>
0.0126

>  <i_epik_Tot_Q>
-1

>  <r_epik_Metal_State_Penalty>
0.0126

>  <b_epik_Metal_Only>
0

>  <s_canvas_Unique_SMILES_Stereo>
Cn1c(=O)n(C)c(=O)cc1[O-]

>  <s_m_subgroup_title>
schrodinger_fragment_collection_epik

>  <s_m_subgroupid>
schrodinger_fragment_collection_epik

>  <b_m_subgroup_collapsed>
0

$$$$
Schrodinger_fragment_392
 OpenBabel04062209313D
Schrodinger Suite 2020-2.
 25 26  0  0  1  0  0  0  0  0999 V2000
    2.3738    0.5353   -0.4029 C   0  0  2  0  0  0  0  0  0  0  0  0
    3.2531    0.2055    0.8290 C   0  0  0  0  0  0  0  0  0  0  0  0
    4.5203    0.9316    0.8372 N   0  0  0  0  0  0  0  0  0  0  0  0
    4.8174    1.9960    0.0821 C   0  0  0  0  0  0  0  0  0  0  0  0
    3.7777    2.5153   -0.9221 C   0  0  0  0  0  0  0  0  0  0  0  0
    1.5831    2.8096    0.2067 C   0  0  0  0  0  0  0  0  0  0  0  0
    0.1582    2.2460    0.2950 C   0  0  0  0  0  0  0  0  0  0  0  0
    0.1885    0.7661    0.6979 C   0  0  0  0  0  0  0  0  0  0  0  0
    5.9095    2.5540    0.1788 O   0  0  0  0  0  0  0  0  0  0  0  0
    2.8136    0.0180   -1.2582 H   0  0  0  0  0  0  0  0  0  0  0  0
    2.7455    0.4513    1.7611 H   0  0  0  0  0  0  0  0  0  0  0  0
    3.4533   -0.8659    0.8659 H   0  0  0  0  0  0  0  0  0  0  0  0
    5.2280    0.6041    1.4814 H   0  0  0  0  0  0  0  0  0  0  0  0
    3.7792    3.6057   -0.9271 H   0  0  0  0  0  0  0  0  0  0  0  0
    4.1122    2.2076   -1.9130 H   0  0  0  0  0  0  0  0  0  0  0  0
    1.5482    3.8433   -0.1387 H   0  0  0  0  0  0  0  0  0  0  0  0
    2.0424    2.8241    1.1959 H   0  0  0  0  0  0  0  0  0  0  0  0
   -0.4184    2.8156    1.0250 H   0  0  0  0  0  0  0  0  0  0  0  0
   -0.3572    2.3678   -0.6590 H   0  0  0  0  0  0  0  0  0  0  0  0
    0.5649    0.6544    1.7156 H   0  0  0  0  0  0  0  0  0  0  0  0
   -0.8241    0.3586    0.7030 H   0  0  0  0  0  0  0  0  0  0  0  0
    2.4007    1.9918   -0.7233 N   0  3  2  0  0  0  0  0  0  0  0  0
    1.9658    2.0997   -1.6261 H   0  0  0  0  0  0  0  0  0  0  0  0
    1.0084    0.0108   -0.2504 N   0  0  0  0  0  0  0  0  0  0  0  0
    0.5507   -0.0192   -1.1581 H   0  0  0  0  0  0  0  0  0  0  0  0
  1  2  1  0  0  0  0
  1 10  1  0  0  0  0
  1 22  1  6  0  0  0
  1 24  1  0  0  0  0
  2  3  1  0  0  0  0
  2 11  1  0  0  0  0
  2 12  1  0  0  0  0
  3  4  1  0  0  0  0
  3 13  1  0  0  0  0
  4  5  1  0  0  0  0
  4  9  2  0  0  0  0
  5 14  1  0  0  0  0
  5 15  1  0  0  0  0
  5 22  1  0  0  0  0
  6  7  1  0  0  0  0
  6 16  1  0  0  0  0
  6 17  1  0  0  0  0
  6 22  1  0  0  0  0
  7  8  1  0  0  0  0
  7 18  1  0  0  0  0
  7 19  1  0  0  0  0
  8 20  1  0  0  0  0
  8 21  1  0  0  0  0
  8 24  1  0  0  0  0
 22 23  1  6  0  0  0
 24 25  1  0  0  0  0
M  CHG  1  22   1
M  END
>  <s_m_entry_id>
6942

>  <s_m_entry_name>
Schrodinger_fragment_486

>  <s_m_Source_Path>
/aloy/home/agimeno/Documents/Starting_Project/Part1_SMILES-to-signatures/1.2/Databases/Compounds/Fragment_library/Schrodinger

>  <s_m_Source_File>
schrodinger_fragment_collection_epik.maegz

>  <i_m_Source_File_Index>
573

>  <i_m_number_of_atoms>
26

>  <r_m_molecular_weight>
157.2171

>  <s_m_molecular_formula>
C7H15N3O1

>  <r_epik_Ionization_Penalty>
0.0033

>  <r_epik_Ionization_Penalty_Charging>
0.0020

>  <r_epik_Ionization_Penalty_Neutral>
0.0013

>  <r_epik_State_Penalty>
0.0000

>  <i_epik_Tot_Q>
1

>  <r_epik_Metal_State_Penalty>
0.6788

>  <b_epik_Metal_Only>
0

>  <s_canvas_Unique_SMILES_Stereo>
C1NC(=O)C[N@@H+]([C@@H]12)CCCN2

>  <s_m_subgroup_title>
schrodinger_fragment_collection_epik

>  <s_m_subgroupid>
schrodinger_fragment_collection_epik

>  <b_m_subgroup_collapsed>
0

$$$$
Schrodinger_fragment_245
 OpenBabel04062209313D
Schrodinger Suite 2020-2.
 23 24  0  0  1  0  0  0  0  0999 V2000
    2.2334   -1.9007    0.6087 C   0  0  1  0  0  0  0  0  0  0  0  0
    2.1458   -3.1154   -0.2705 C   0  0  1  0  0  0  0  0  0  0  0  0
    3.5093   -3.5974   -0.2259 N   0  0  0  0  0  0  0  0  0  0  0  0
    4.3204   -2.5296   -0.1451 C   0  0  0  0  0  0  0  0  0  0  0  0
    3.5169   -1.2386    0.1091 C   0  0  0  0  0  0  0  0  0  0  0  0
    0.0019   -2.5499    0.4820 C   0  0  0  0  0  0  0  0  0  0  0  0
    0.9378   -3.7937    0.3481 C   0  0  0  0  0  0  0  0  0  0  0  0
    5.5474   -2.5624   -0.2366 O   0  0  0  0  0  0  0  0  0  0  0  0
    0.6286   -0.3230   -0.4919 C   0  0  0  0  0  0  0  0  0  0  0  0
    2.3994   -2.1961    1.6500 H   0  0  0  0  0  0  0  0  0  0  0  0
    1.9178   -2.8501   -1.3072 H   0  0  0  0  0  0  0  0  0  0  0  0
    3.7952   -4.5467   -0.4281 H   0  0  0  0  0  0  0  0  0  0  0  0
    3.3913   -0.6933   -0.8262 H   0  0  0  0  0  0  0  0  0  0  0  0
    3.9815   -0.5948    0.8557 H   0  0  0  0  0  0  0  0  0  0  0  0
   -0.6627   -2.4858   -0.3812 H   0  0  0  0  0  0  0  0  0  0  0  0
   -0.6319   -2.6292    1.3658 H   0  0  0  0  0  0  0  0  0  0  0  0
    0.5138   -4.5762   -0.2815 H   0  0  0  0  0  0  0  0  0  0  0  0
    1.1717   -4.2210    1.3245 H   0  0  0  0  0  0  0  0  0  0  0  0
   -0.4034    0.0261   -0.4505 H   0  0  0  0  0  0  0  0  0  0  0  0
    0.8078   -0.7241   -1.4897 H   0  0  0  0  0  0  0  0  0  0  0  0
    1.2725    0.5457   -0.3531 H   0  0  0  0  0  0  0  0  0  0  0  0
    0.8752   -1.3329    0.5631 N   0  3  2  0  0  0  0  0  0  0  0  0
    0.7015   -0.8789    1.4482 H   0  0  0  0  0  0  0  0  0  0  0  0
  1  2  1  6  0  0  0
  1  5  1  0  0  0  0
  1 10  1  0  0  0  0
  2  3  1  0  0  0  0
  2  7  1  0  0  0  0
  2 11  1  6  0  0  0
  3  4  1  0  0  0  0
  3 12  1  0  0  0  0
  4  5  1  0  0  0  0
  4  8  2  0  0  0  0
  5 13  1  0  0  0  0
  5 14  1  0  0  0  0
  6  7  1  0  0  0  0
  6 15  1  0  0  0  0
  6 16  1  0  0  0  0
  6 22  1  0  0  0  0
  7 17  1  0  0  0  0
  7 18  1  0  0  0  0
  9 19  1  0  0  0  0
  9 20  1  0  0  0  0
  9 21  1  0  0  0  0
  9 22  1  0  0  0  0
 22  1  1  6  0  0  0
 22 23  1  0  0  0  0
M  CHG  1  22   1
M  END
>  <s_m_entry_id>
6684

>  <s_m_entry_name>
Schrodinger_fragment_306

>  <s_m_Source_Path>
/aloy/home/agimeno/Documents/Starting_Project/Part1_SMILES-to-signatures/1.2/Databases/Compounds/Fragment_library/Schrodinger

>  <s_m_Source_File>
schrodinger_fragment_collection_epik.maegz

>  <i_m_Source_File_Index>
315

>  <i_m_number_of_atoms>
23

>  <r_m_molecular_weight>
141.19446

>  <s_m_molecular_formula>
C7H13N2O1

>  <r_epik_Ionization_Penalty>
0.0038

>  <r_epik_Ionization_Penalty_Charging>
0.0038

>  <r_epik_Ionization_Penalty_Neutral>
0.0000

>  <r_epik_State_Penalty>
0.0000

>  <i_epik_Tot_Q>
1

>  <r_epik_Metal_State_Penalty>
0.0000

>  <b_epik_Metal_Only>
0

>  <s_canvas_Unique_SMILES_Stereo>
C1C[N@H+](C)[C@@H]([C@H]12)CC(=O)N2

>  <s_m_subgroup_title>
schrodinger_fragment_collection_epik

>  <s_m_subgroupid>
schrodinger_fragment_collection_epik

>  <b_m_subgroup_collapsed>
0

$$$$
Schrodinger_fragment_121_a
 OpenBabel04062209313D
Schrodinger Suite 2020-2.
 16 17  0  0  1  0  0  0  0  0999 V2000
    2.2166    2.1073    0.0238 C   0  0  0  0  0  0  0  0  0  0  0  0
    2.1924    0.7841    0.0238 N   0  0  0  0  0  0  0  0  0  0  0  0
    3.3555    0.0484    0.0262 C   0  0  0  0  0  0  0  0  0  0  0  0
    4.5542    0.7339    0.0285 C   0  0  0  0  0  0  0  0  0  0  0  0
    4.5652    2.1559    0.0284 C   0  0  0  0  0  0  0  0  0  0  0  0
    3.3763    2.8569    0.0260 C   0  0  0  0  0  0  0  0  0  0  0  0
    0.9516    2.5193    0.0212 N   0  3  0  0  0  0  0  0  0  0  0  0
    0.1296    1.3879    0.0197 C   0  0  0  0  0  0  0  0  0  0  0  0
    0.9187    0.2569    0.0213 C   0  0  0  0  0  0  0  0  0  0  0  0
    3.2680   -1.0358    0.0261 H   0  0  0  0  0  0  0  0  0  0  0  0
    5.4937    0.1845    0.0304 H   0  0  0  0  0  0  0  0  0  0  0  0
    5.5105    2.6929    0.0302 H   0  0  0  0  0  0  0  0  0  0  0  0
    3.3314    3.9414    0.0258 H   0  0  0  0  0  0  0  0  0  0  0  0
   -0.9506    1.4991    0.0175 H   0  0  0  0  0  0  0  0  0  0  0  0
    0.6724   -0.8009    0.0209 H   0  0  0  0  0  0  0  0  0  0  0  0
    0.6330    3.4832    0.0205 H   0  0  0  0  0  0  0  0  0  0  0  0
  1  2  1  0  0  0  0
  1  6  1  0  0  0  0
  1  7  2  0  0  0  0
  2  3  1  0  0  0  0
  2  9  1  0  0  0  0
  3  4  2  0  0  0  0
  3 10  1  0  0  0  0
  4  5  1  0  0  0  0
  4 11  1  0  0  0  0
  5  6  2  0  0  0  0
  5 12  1  0  0  0  0
  6 13  1  0  0  0  0
  7  8  1  0  0  0  0
  7 16  1  0  0  0  0
  8  9  2  0  0  0  0
  8 14  1  0  0  0  0
  9 15  1  0  0  0  0
M  CHG  1   7   1
M  END
>  <s_m_entry_id>
6518

>  <s_m_entry_name>
Schrodinger_fragment_141

>  <s_m_Source_Path>
/aloy/home/agimeno/Documents/Starting_Project/Part1_SMILES-to-signatures/1.2/Databases/Compounds/Fragment_library/Schrodinger

>  <s_m_Source_File>
schrodinger_fragment_collection_epik.maegz

>  <i_m_Source_File_Index>
149

>  <i_m_number_of_atoms>
15

>  <r_m_molecular_weight>
118.13927

>  <s_m_molecular_formula>
C7H6N2

>  <r_epik_Ionization_Penalty>
0.6625

>  <r_epik_Ionization_Penalty_Charging>
0.6609

>  <r_epik_Ionization_Penalty_Neutral>
0.0016

>  <r_epik_State_Penalty>
0.6609

>  <i_epik_Tot_Q>
1

>  <r_epik_Metal_State_Penalty>
4.5187

>  <b_epik_Metal_Only>
0

>  <s_canvas_Unique_SMILES_Stereo>
[nH+]1ccn(c12)cccc2

>  <s_m_subgroup_title>
schrodinger_fragment_collection_epik

>  <s_m_subgroupid>
schrodinger_fragment_collection_epik

>  <b_m_subgroup_collapsed>
0

$$$$
Schrodinger_fragment_242
 OpenBabel04062209313D
Schrodinger Suite 2020-2.
 23 24  0  0  1  0  0  0  0  0999 V2000
    2.2387   -0.9965    0.3035 C   0  0  1  0  0  0  0  0  0  0  0  0
    2.2382   -2.3672   -0.3096 C   0  0  1  0  0  0  0  0  0  0  0  0
    3.5979   -2.7956   -0.0550 N   0  0  0  0  0  0  0  0  0  0  0  0
    4.3918   -1.7059   -0.1389 C   0  0  0  0  0  0  0  0  0  0  0  0
    3.5474   -0.4188   -0.2269 C   0  0  0  0  0  0  0  0  0  0  0  0
    0.0343   -1.7070    0.1710 C   0  0  0  0  0  0  0  0  0  0  0  0
    0.9839   -2.9380    0.3326 C   0  0  0  0  0  0  0  0  0  0  0  0
    5.6259   -1.7062   -0.1283 O   0  0  0  0  0  0  0  0  0  0  0  0
    4.0041   -4.1937   -0.0039 C   0  0  0  0  0  0  0  0  0  0  0  0
    2.3080   -1.0557    1.3949 H   0  0  0  0  0  0  0  0  0  0  0  0
    2.0986   -2.3220   -1.3944 H   0  0  0  0  0  0  0  0  0  0  0  0
    3.4772   -0.0861   -1.2625 H   0  0  0  0  0  0  0  0  0  0  0  0
    3.9415    0.3833    0.3966 H   0  0  0  0  0  0  0  0  0  0  0  0
   -0.6151   -1.8218   -0.6977 H   0  0  0  0  0  0  0  0  0  0  0  0
   -0.6068   -1.5922    1.0458 H   0  0  0  0  0  0  0  0  0  0  0  0
    0.6117   -3.8306   -0.1710 H   0  0  0  0  0  0  0  0  0  0  0  0
    1.1468   -3.1758    1.3852 H   0  0  0  0  0  0  0  0  0  0  0  0
    4.7784   -4.3422    0.7499 H   0  0  0  0  0  0  0  0  0  0  0  0
    4.4019   -4.5090   -0.9690 H   0  0  0  0  0  0  0  0  0  0  0  0
    3.1621   -4.8394    0.2459 H   0  0  0  0  0  0  0  0  0  0  0  0
    0.8973   -0.5027   -0.0203 N   0  3  0  0  0  0  0  0  0  0  0  0
    0.6170    0.2576    0.5786 H   0  0  0  0  0  0  0  0  0  0  0  0
    0.8444   -0.2014   -0.9798 H   0  0  0  0  0  0  0  0  0  0  0  0
  1  2  1  6  0  0  0
  1  5  1  0  0  0  0
  1 10  1  0  0  0  0
  1 21  1  0  0  0  0
  2  3  1  0  0  0  0
  2  7  1  0  0  0  0
  2 11  1  6  0  0  0
  3  4  1  0  0  0  0
  3  9  1  0  0  0  0
  4  5  1  0  0  0  0
  4  8  2  0  0  0  0
  5 12  1  0  0  0  0
  5 13  1  0  0  0  0
  6  7  1  0  0  0  0
  6 14  1  0  0  0  0
  6 15  1  0  0  0  0
  6 21  1  0  0  0  0
  7 16  1  0  0  0  0
  7 17  1  0  0  0  0
  9 18  1  0  0  0  0
  9 19  1  0  0  0  0
  9 20  1  0  0  0  0
 21 22  1  0  0  0  0
 21 23  1  0  0  0  0
M  CHG  1  21   1
M  END
>  <s_m_entry_id>
6681

>  <s_m_entry_name>
Schrodinger_fragment_303

>  <s_m_Source_Path>
/aloy/home/agimeno/Documents/Starting_Project/Part1_SMILES-to-signatures/1.2/Databases/Compounds/Fragment_library/Schrodinger

>  <s_m_Source_File>
schrodinger_fragment_collection_epik.maegz

>  <i_m_Source_File_Index>
312

>  <i_m_number_of_atoms>
23

>  <r_m_molecular_weight>
141.19446

>  <s_m_molecular_formula>
C7H13N2O1

>  <r_epik_Ionization_Penalty>
0.0072

>  <r_epik_Ionization_Penalty_Charging>
0.0072

>  <r_epik_Ionization_Penalty_Neutral>
0.0000

>  <r_epik_State_Penalty>
0.0000

>  <i_epik_Tot_Q>
1

>  <r_epik_Metal_State_Penalty>
0.0000

>  <b_epik_Metal_Only>
0

>  <s_canvas_Unique_SMILES_Stereo>
CN1C(=O)C[C@H]([C@@H]12)[NH2+]CC2

>  <s_m_subgroup_title>
schrodinger_fragment_collection_epik

>  <s_m_subgroupid>
schrodinger_fragment_collection_epik

>  <b_m_subgroup_collapsed>
0

$$$$
Schrodinger_fragment_247
 OpenBabel04062209313D
Schrodinger Suite 2020-2.
 23 24  0  0  1  0  0  0  0  0999 V2000
    0.0113   -0.5339   -0.4597 C   0  0  0  0  0  0  0  0  0  0  0  0
   -0.1232   -1.4964    0.7244 C   0  0  0  0  0  0  0  0  0  0  0  0
    2.2066   -1.3056    0.1584 C   0  0  1  0  0  0  0  0  0  0  0  0
    1.3575   -0.9187   -1.0697 C   0  0  0  0  0  0  0  0  0  0  0  0
    3.2376   -2.3888   -0.1441 C   0  0  0  0  0  0  0  0  0  0  0  0
    4.4724   -1.9049   -0.0680 N   0  0  0  0  0  0  0  0  0  0  0  0
    4.5154   -0.4894    0.2544 C   0  0  0  0  0  0  0  0  0  0  0  0
    3.0809   -0.1517    0.6952 C   0  0  0  0  0  0  0  0  0  0  0  0
    2.9480   -3.5625   -0.3814 O   0  0  0  0  0  0  0  0  0  0  0  0
   -0.8166   -0.6108   -1.1657 H   0  0  0  0  0  0  0  0  0  0  0  0
    0.0483    0.4961   -0.1006 H   0  0  0  0  0  0  0  0  0  0  0  0
   -0.7119   -1.0719    1.5386 H   0  0  0  0  0  0  0  0  0  0  0  0
   -0.6130   -2.4182    0.4071 H   0  0  0  0  0  0  0  0  0  0  0  0
    1.2276   -1.7710   -1.7394 H   0  0  0  0  0  0  0  0  0  0  0  0
    1.7962   -0.1103   -1.6556 H   0  0  0  0  0  0  0  0  0  0  0  0
    5.3061   -2.4570   -0.2232 H   0  0  0  0  0  0  0  0  0  0  0  0
    5.2460   -0.2771    1.0365 H   0  0  0  0  0  0  0  0  0  0  0  0
    4.7969    0.0763   -0.6356 H   0  0  0  0  0  0  0  0  0  0  0  0
    2.7681    0.8251    0.3248 H   0  0  0  0  0  0  0  0  0  0  0  0
    3.0399   -0.1039    1.7842 H   0  0  0  0  0  0  0  0  0  0  0  0
    1.2532   -1.8222    1.1574 N   0  3  0  0  0  0  0  0  0  0  0  0
    1.4658   -1.4567    2.0703 H   0  0  0  0  0  0  0  0  0  0  0  0
    1.3791   -2.8236    1.1774 H   0  0  0  0  0  0  0  0  0  0  0  0
  1  2  1  0  0  0  0
  1  4  1  0  0  0  0
  1 10  1  0  0  0  0
  1 11  1  0  0  0  0
  2 12  1  0  0  0  0
  2 13  1  0  0  0  0
  2 21  1  0  0  0  0
  3  4  1  0  0  0  0
  3  5  1  6  0  0  0
  3  8  1  0  0  0  0
  3 21  1  0  0  0  0
  4 14  1  0  0  0  0
  4 15  1  0  0  0  0
  5  6  1  0  0  0  0
  5  9  2  0  0  0  0
  6  7  1  0  0  0  0
  6 16  1  0  0  0  0
  7  8  1  0  0  0  0
  7 17  1  0  0  0  0
  7 18  1  0  0  0  0
  8 19  1  0  0  0  0
  8 20  1  0  0  0  0
 21 22  1  0  0  0  0
 21 23  1  0  0  0  0
M  CHG  1  21   1
M  END
>  <s_m_entry_id>
6686

>  <s_m_entry_name>
Schrodinger_fragment_308

>  <s_m_Source_Path>
/aloy/home/agimeno/Documents/Starting_Project/Part1_SMILES-to-signatures/1.2/Databases/Compounds/Fragment_library/Schrodinger

>  <s_m_Source_File>
schrodinger_fragment_collection_epik.maegz

>  <i_m_Source_File_Index>
317

>  <i_m_number_of_atoms>
23

>  <r_m_molecular_weight>
141.19446

>  <s_m_molecular_formula>
C7H13N2O1

>  <r_epik_Ionization_Penalty>
0.0028

>  <r_epik_Ionization_Penalty_Charging>
0.0019

>  <r_epik_Ionization_Penalty_Neutral>
0.0009

>  <r_epik_State_Penalty>
0.0000

>  <i_epik_Tot_Q>
1

>  <r_epik_Metal_State_Penalty>
0.5395

>  <b_epik_Metal_Only>
0

>  <s_canvas_Unique_SMILES_Stereo>
C1CNC(=O)[C@]12CCC[NH2+]2

>  <s_m_subgroup_title>
schrodinger_fragment_collection_epik

>  <s_m_subgroupid>
schrodinger_fragment_collection_epik

>  <b_m_subgroup_collapsed>
0

$$$$
Schrodinger_fragment_431_a
 OpenBabel04062209313D
Schrodinger Suite 2020-2.
 24 25  0  0  1  0  0  0  0  0999 V2000
    2.5289   -3.0283   -0.2693 C   0  0  0  0  0  0  0  0  0  0  0  0
    2.4869   -1.6213   -0.0033 C   0  0  0  0  0  0  0  0  0  0  0  0
    3.7570   -3.7493   -0.6261 C   0  0  0  0  0  0  0  0  0  0  0  0
    4.8944   -3.4859   -0.0614 N   0  3  0  0  0  0  0  0  0  0  0  0
    5.0908   -2.4659    0.9835 C   0  0  0  0  0  0  0  0  0  0  0  0
    4.8558   -1.0600    0.4284 C   0  0  0  0  0  0  0  0  0  0  0  0
    3.6340   -0.7491   -0.0793 N   0  0  0  0  0  0  0  0  0  0  0  0
    1.2363   -1.0404    0.3306 C   0  0  0  0  0  0  0  0  0  0  0  0
    0.0633   -1.8147    0.3957 C   0  0  0  0  0  0  0  0  0  0  0  0
    0.1148   -3.1914    0.1224 C   0  0  0  0  0  0  0  0  0  0  0  0
    1.3430   -3.7906   -0.2096 C   0  0  0  0  0  0  0  0  0  0  0  0
    5.7908   -0.2521    0.4732 O   0  0  0  0  0  0  0  0  0  0  0  0
    3.4419    0.6100   -0.6113 C   0  0  0  0  0  0  0  0  0  0  0  0
    3.6818   -4.5399   -1.3649 H   0  0  0  0  0  0  0  0  0  0  0  0
    4.4283   -2.6842    1.8225 H   0  0  0  0  0  0  0  0  0  0  0  0
    6.1161   -2.5716    1.3403 H   0  0  0  0  0  0  0  0  0  0  0  0
    1.1612    0.0146    0.5520 H   0  0  0  0  0  0  0  0  0  0  0  0
   -0.8787   -1.3493    0.6549 H   0  0  0  0  0  0  0  0  0  0  0  0
   -0.7844   -3.7896    0.1688 H   0  0  0  0  0  0  0  0  0  0  0  0
    1.3724   -4.8501   -0.4137 H   0  0  0  0  0  0  0  0  0  0  0  0
    4.2950    0.9381   -1.2079 H   0  0  0  0  0  0  0  0  0  0  0  0
    3.3038    1.3240    0.2015 H   0  0  0  0  0  0  0  0  0  0  0  0
    2.5744    0.6693   -1.2692 H   0  0  0  0  0  0  0  0  0  0  0  0
    5.7342   -3.9924   -0.3469 H   0  0  0  0  0  0  0  0  0  0  0  0
  1  2  2  0  0  0  0
  1  3  1  0  0  0  0
  1 11  1  0  0  0  0
  2  7  1  0  0  0  0
  2  8  1  0  0  0  0
  3  4  2  0  0  0  0
  3 14  1  0  0  0  0
  4  5  1  0  0  0  0
  4 24  1  0  0  0  0
  5  6  1  0  0  0  0
  5 15  1  0  0  0  0
  5 16  1  0  0  0  0
  6  7  1  0  0  0  0
  6 12  2  0  0  0  0
  7 13  1  0  0  0  0
  8  9  2  0  0  0  0
  8 17  1  0  0  0  0
  9 10  1  0  0  0  0
  9 18  1  0  0  0  0
 10 11  2  0  0  0  0
 10 19  1  0  0  0  0
 11 20  1  0  0  0  0
 13 21  1  0  0  0  0
 13 22  1  0  0  0  0
 13 23  1  0  0  0  0
M  CHG  1   4   1
M  END
>  <s_m_entry_id>
7019

>  <s_m_entry_name>
Schrodinger_fragment_535

>  <s_m_Source_Path>
/aloy/home/agimeno/Documents/Starting_Project/Part1_SMILES-to-signatures/1.2/Databases/Compounds/Fragment_library/Schrodinger

>  <s_m_Source_File>
schrodinger_fragment_collection_epik.maegz

>  <i_m_Source_File_Index>
650

>  <i_m_number_of_atoms>
23

>  <r_m_molecular_weight>
174.204

>  <s_m_molecular_formula>
C10H10N2O1

>  <r_epik_Ionization_Penalty>
0.9394

>  <r_epik_Ionization_Penalty_Charging>
0.9394

>  <r_epik_Ionization_Penalty_Neutral>
0.0000

>  <r_epik_State_Penalty>
0.9394

>  <i_epik_Tot_Q>
1

>  <r_epik_Metal_State_Penalty>
0.9394

>  <b_epik_Metal_Only>
0

>  <s_canvas_Unique_SMILES_Stereo>
C1=[NH+]CC(=O)N(C)c(c12)cccc2

>  <s_m_subgroup_title>
schrodinger_fragment_collection_epik

>  <s_m_subgroupid>
schrodinger_fragment_collection_epik

>  <b_m_subgroup_collapsed>
0

$$$$
Schrodinger_fragment_366
 OpenBabel04062209313D
Schrodinger Suite 2020-2.
 24 25  0  0  1  0  0  0  0  0999 V2000
    3.8787   -2.2329    0.0134 C   0  0  0  0  0  0  0  0  0  0  0  0
    3.8658   -3.6401    0.0300 C   0  0  0  0  0  0  0  0  0  0  0  0
    5.0991   -4.3407    0.0321 C   0  0  0  0  0  0  0  0  0  0  0  0
    6.3193   -3.6381    0.0183 C   0  0  0  0  0  0  0  0  0  0  0  0
    6.3242   -2.2318    0.0021 C   0  0  0  0  0  0  0  0  0  0  0  0
    5.1048   -1.5294   -0.0004 C   0  0  0  0  0  0  0  0  0  0  0  0
    2.5685   -1.5071    0.0106 C   0  0  0  0  0  0  0  0  0  0  0  0
    1.4380   -2.2610    0.0202 N   0  0  0  0  0  0  0  0  0  0  0  0
    1.4153   -3.6300    0.0344 C   0  0  0  0  0  0  0  0  0  0  0  0
    2.6029   -4.3108    0.0437 N   0  0  0  0  0  0  0  0  0  0  0  0
    2.5571   -0.2673   -0.0013 O   0  0  0  0  0  0  0  0  0  0  0  0
    0.3400   -4.2441    0.0390 O   0  0  0  0  0  0  0  0  0  0  0  0
    0.1618   -1.5116    0.0136 C   0  0  0  0  0  0  0  0  0  0  0  0
    2.6020   -5.7854    0.0658 C   0  0  0  0  0  0  0  0  0  0  0  0
    5.1400   -5.4200    0.0440 H   0  0  0  0  0  0  0  0  0  0  0  0
    7.2543   -4.1813    0.0200 H   0  0  0  0  0  0  0  0  0  0  0  0
    7.2618   -1.6924   -0.0086 H   0  0  0  0  0  0  0  0  0  0  0  0
    5.1152   -0.4479   -0.0131 H   0  0  0  0  0  0  0  0  0  0  0  0
   -0.7391   -2.1255    0.0288 H   0  0  0  0  0  0  0  0  0  0  0  0
    0.0928   -0.8863   -0.8783 H   0  0  0  0  0  0  0  0  0  0  0  0
    0.1006   -0.8561    0.8842 H   0  0  0  0  0  0  0  0  0  0  0  0
    1.6155   -6.2499    0.0846 H   0  0  0  0  0  0  0  0  0  0  0  0
    3.1266   -6.1500    0.9498 H   0  0  0  0  0  0  0  0  0  0  0  0
    3.1072   -6.1763   -0.8182 H   0  0  0  0  0  0  0  0  0  0  0  0
  1  2  2  0  0  0  0
  1  6  1  0  0  0  0
  1  7  1  0  0  0  0
  2  3  1  0  0  0  0
  2 10  1  0  0  0  0
  3  4  2  0  0  0  0
  3 15  1  0  0  0  0
  4  5  1  0  0  0  0
  4 16  1  0  0  0  0
  5  6  2  0  0  0  0
  5 17  1  0  0  0  0
  6 18  1  0  0  0  0
  7  8  1  0  0  0  0
  7 11  2  0  0  0  0
  8  9  1  0  0  0  0
  8 13  1  0  0  0  0
  9 10  1  0  0  0  0
  9 12  2  0  0  0  0
 10 14  1  0  0  0  0
 13 19  1  0  0  0  0
 13 20  1  0  0  0  0
 13 21  1  0  0  0  0
 14 22  1  0  0  0  0
 14 23  1  0  0  0  0
 14 24  1  0  0  0  0
M  END
>  <s_m_entry_id>
6894

>  <s_m_entry_name>
Schrodinger_fragment_457

>  <s_m_Source_Path>
/aloy/home/agimeno/Documents/Starting_Project/Part1_SMILES-to-signatures/1.2/Databases/Compounds/Fragment_library/Schrodinger

>  <s_m_Source_File>
schrodinger_fragment_collection_epik.maegz

>  <i_m_Source_File_Index>
525

>  <i_m_number_of_atoms>
24

>  <r_m_molecular_weight>
190.2034

>  <s_m_molecular_formula>
C10H10N2O2

>  <r_epik_Ionization_Penalty>
0.0000

>  <r_epik_Ionization_Penalty_Charging>
0.0000

>  <r_epik_Ionization_Penalty_Neutral>
0.0000

>  <r_epik_State_Penalty>
0.0000

>  <i_epik_Tot_Q>
0

>  <r_epik_Metal_State_Penalty>
0.0000

>  <b_epik_Metal_Only>
0

>  <s_canvas_Unique_SMILES_Stereo>
O=c1n(C)c(=O)n(C)c(c12)cccc2

>  <s_m_subgroup_title>
schrodinger_fragment_collection_epik

>  <s_m_subgroupid>
schrodinger_fragment_collection_epik

>  <b_m_subgroup_collapsed>
0

$$$$
Schrodinger_fragment_180_a
 OpenBabel04062209313D
Schrodinger Suite 2020-2.
 10 10  0  0  1  0  0  0  0  0999 V2000
    0.0464    1.9516    0.0204 C   0  0  0  0  0  0  0  0  0  0  0  0
    0.0351    0.4240    0.0247 C   0  0  0  0  0  0  0  0  0  0  0  0
    1.4273    0.0411    0.0246 N   0  0  0  0  0  0  0  0  0  0  0  0
    2.1300    1.0756    0.0211 C   0  0  0  0  0  0  0  0  0  0  0  0
    1.4351    2.2364    0.0184 O   0  0  0  0  0  0  0  0  0  0  0  0
    3.3543    1.1959    0.0197 O   0  5  0  0  0  0  0  0  0  0  0  0
   -0.4348    2.3635   -0.8679 H   0  0  0  0  0  0  0  0  0  0  0  0
   -0.4333    2.3685    0.9071 H   0  0  0  0  0  0  0  0  0  0  0  0
   -0.4774    0.0376    0.9077 H   0  0  0  0  0  0  0  0  0  0  0  0
   -0.4789    0.0327   -0.8553 H   0  0  0  0  0  0  0  0  0  0  0  0
  1  2  1  0  0  0  0
  1  5  1  0  0  0  0
  1  7  1  0  0  0  0
  1  8  1  0  0  0  0
  2  3  1  0  0  0  0
  2  9  1  0  0  0  0
  2 10  1  0  0  0  0
  3  4  2  0  0  0  0
  4  5  1  0  0  0  0
  4  6  1  0  0  0  0
M  CHG  1   6  -1
M  END
>  <s_m_entry_id>
6597

>  <s_m_entry_name>
Schrodinger_fragment_235

>  <s_m_Source_Path>
/aloy/home/agimeno/Documents/Starting_Project/Part1_SMILES-to-signatures/1.2/Databases/Compounds/Fragment_library/Schrodinger

>  <s_m_Source_File>
schrodinger_fragment_collection_epik.maegz

>  <i_m_Source_File_Index>
228

>  <i_m_number_of_atoms>
11

>  <r_m_molecular_weight>
87.0788

>  <s_m_molecular_formula>
C3H5N1O2

>  <r_epik_Ionization_Penalty>
5.9347

>  <r_epik_Ionization_Penalty_Charging>
5.9347

>  <r_epik_Ionization_Penalty_Neutral>
0.0000

>  <r_epik_State_Penalty>
5.9347

>  <i_epik_Tot_Q>
-1

>  <r_epik_Metal_State_Penalty>
1.8678

>  <b_epik_Metal_Only>
1

>  <s_canvas_Unique_SMILES_Stereo>
[O-]C1=NCCO1

>  <s_m_subgroup_title>
schrodinger_fragment_collection_epik

>  <s_m_subgroupid>
schrodinger_fragment_collection_epik

>  <b_m_subgroup_collapsed>
0

$$$$
Schrodinger_fragment_408
 OpenBabel04062209313D
Schrodinger Suite 2020-2.
 28 29  0  0  1  0  0  0  0  0999 V2000
    2.4247   -2.2788   -0.1913 C   0  0  2  0  0  0  0  0  0  0  0  0
    3.7112   -3.0002    0.2880 C   0  0  0  0  0  0  0  0  0  0  0  0
    4.9301   -2.2359    0.0006 N   0  0  0  0  0  0  0  0  0  0  0  0
    4.9650   -0.9108    0.2467 C   0  0  0  0  0  0  0  0  0  0  0  0
    3.6492   -0.2601    0.6780 C   0  0  0  0  0  0  0  0  0  0  0  0
    1.2188   -0.1232    0.2466 C   0  0  0  0  0  0  0  0  0  0  0  0
    0.0326   -0.8630   -0.3924 C   0  0  0  0  0  0  0  0  0  0  0  0
    0.0034   -2.3584   -0.0118 C   0  0  0  0  0  0  0  0  0  0  0  0
    5.9795   -0.2221    0.1049 O   0  0  0  0  0  0  0  0  0  0  0  0
    6.1162   -2.9704   -0.4455 C   0  0  0  0  0  0  0  0  0  0  0  0
    2.2839   -2.5207   -1.2472 H   0  0  0  0  0  0  0  0  0  0  0  0
    3.6788   -3.1517    1.3690 H   0  0  0  0  0  0  0  0  0  0  0  0
    3.7522   -3.9958   -0.1553 H   0  0  0  0  0  0  0  0  0  0  0  0
    3.4955   -0.4576    1.7393 H   0  0  0  0  0  0  0  0  0  0  0  0
    3.7202    0.8211    0.5568 H   0  0  0  0  0  0  0  0  0  0  0  0
    1.2376    0.9207   -0.0675 H   0  0  0  0  0  0  0  0  0  0  0  0
    1.0965   -0.1240    1.3308 H   0  0  0  0  0  0  0  0  0  0  0  0
   -0.9062   -0.3881   -0.1049 H   0  0  0  0  0  0  0  0  0  0  0  0
    0.0915   -0.7670   -1.4777 H   0  0  0  0  0  0  0  0  0  0  0  0
   -0.7822   -2.5464    0.7221 H   0  0  0  0  0  0  0  0  0  0  0  0
   -0.2483   -2.9562   -0.8902 H   0  0  0  0  0  0  0  0  0  0  0  0
    6.4227   -2.6328   -1.4366 H   0  0  0  0  0  0  0  0  0  0  0  0
    5.9477   -4.0461   -0.4994 H   0  0  0  0  0  0  0  0  0  0  0  0
    6.9508   -2.8070    0.2382 H   0  0  0  0  0  0  0  0  0  0  0  0
    2.5027   -0.7821   -0.1066 N   0  3  2  0  0  0  0  0  0  0  0  0
    2.7099   -0.4953   -1.0530 H   0  0  0  0  0  0  0  0  0  0  0  0
    1.2777   -2.8079    0.5508 N   0  0  0  0  0  0  0  0  0  0  0  0
    1.3083   -3.8246    0.5574 H   0  0  0  0  0  0  0  0  0  0  0  0
  1  2  1  0  0  0  0
  1 11  1  0  0  0  0
  1 25  1  1  0  0  0
  1 27  1  0  0  0  0
  2  3  1  0  0  0  0
  2 12  1  0  0  0  0
  2 13  1  0  0  0  0
  3  4  1  0  0  0  0
  3 10  1  0  0  0  0
  4  5  1  0  0  0  0
  4  9  2  0  0  0  0
  5 14  1  0  0  0  0
  5 15  1  0  0  0  0
  5 25  1  0  0  0  0
  6  7  1  0  0  0  0
  6 16  1  0  0  0  0
  6 17  1  0  0  0  0
  6 25  1  0  0  0  0
  7  8  1  0  0  0  0
  7 18  1  0  0  0  0
  7 19  1  0  0  0  0
  8 20  1  0  0  0  0
  8 21  1  0  0  0  0
  8 27  1  0  0  0  0
 10 22  1  0  0  0  0
 10 23  1  0  0  0  0
 10 24  1  0  0  0  0
 25 26  1  6  0  0  0
 27 28  1  0  0  0  0
M  CHG  1  25   1
M  END
>  <s_m_entry_id>
6971

>  <s_m_entry_name>
Schrodinger_fragment_506

>  <s_m_Source_Path>
/aloy/home/agimeno/Documents/Starting_Project/Part1_SMILES-to-signatures/1.2/Databases/Compounds/Fragment_library/Schrodinger

>  <s_m_Source_File>
schrodinger_fragment_collection_epik.maegz

>  <i_m_Source_File_Index>
602

>  <i_m_number_of_atoms>
29

>  <r_m_molecular_weight>
171.24419

>  <s_m_molecular_formula>
C8H17N3O1

>  <r_epik_Ionization_Penalty>
0.0014

>  <r_epik_Ionization_Penalty_Charging>
0.0014

>  <r_epik_Ionization_Penalty_Neutral>
0.0000

>  <r_epik_State_Penalty>
0.0000

>  <i_epik_Tot_Q>
1

>  <r_epik_Metal_State_Penalty>
0.0000

>  <b_epik_Metal_Only>
0

>  <s_canvas_Unique_SMILES_Stereo>
CN(C1)C(=O)C[N@@H+]([C@@H]12)CCCN2

>  <s_m_subgroup_title>
schrodinger_fragment_collection_epik

>  <s_m_subgroupid>
schrodinger_fragment_collection_epik

>  <b_m_subgroup_collapsed>
0

$$$$
Schrodinger_fragment_111_a
 OpenBabel04062209313D
Schrodinger Suite 2020-2.
 16 17  0  0  1  0  0  0  0  0999 V2000
    2.2060    2.1153    0.0245 C   0  0  0  0  0  0  0  0  0  0  0  0
    2.2133    0.6911    0.0243 C   0  0  0  0  0  0  0  0  0  0  0  0
    3.4354   -0.0087    0.0258 C   0  0  0  0  0  0  0  0  0  0  0  0
    4.6332    0.7393    0.0274 C   0  0  0  0  0  0  0  0  0  0  0  0
    4.5668    2.1516    0.0275 C   0  0  0  0  0  0  0  0  0  0  0  0
    3.3628    2.7733    0.0260 N   0  3  0  0  0  0  0  0  0  0  0  0
    0.8351    2.5469    0.0227 C   0  0  0  0  0  0  0  0  0  0  0  0
    0.0555    1.4165    0.0216 C   0  0  0  0  0  0  0  0  0  0  0  0
    0.8869    0.3090    0.0225 N   0  0  0  0  0  0  0  0  0  0  0  0
    3.4561   -1.0891    0.0257 H   0  0  0  0  0  0  0  0  0  0  0  0
    5.5929    0.2374    0.0286 H   0  0  0  0  0  0  0  0  0  0  0  0
    5.4377    2.7963    0.0287 H   0  0  0  0  0  0  0  0  0  0  0  0
    0.4834    3.5711    0.0224 H   0  0  0  0  0  0  0  0  0  0  0  0
   -1.0240    1.3101    0.0202 H   0  0  0  0  0  0  0  0  0  0  0  0
    0.5296   -0.6418    0.0220 H   0  0  0  0  0  0  0  0  0  0  0  0
    3.3410    3.7944    0.0261 H   0  0  0  0  0  0  0  0  0  0  0  0
  1  2  2  0  0  0  0
  1  6  1  0  0  0  0
  1  7  1  0  0  0  0
  2  3  1  0  0  0  0
  2  9  1  0  0  0  0
  3  4  2  0  0  0  0
  3 10  1  0  0  0  0
  4  5  1  0  0  0  0
  4 11  1  0  0  0  0
  5  6  2  0  0  0  0
  5 12  1  0  0  0  0
  6 16  1  0  0  0  0
  7  8  2  0  0  0  0
  7 13  1  0  0  0  0
  8  9  1  0  0  0  0
  8 14  1  0  0  0  0
  9 15  1  0  0  0  0
M  CHG  1   6   1
M  END
>  <s_m_entry_id>
6503

>  <s_m_entry_name>
Schrodinger_fragment_124

>  <s_m_Source_Path>
/aloy/home/agimeno/Documents/Starting_Project/Part1_SMILES-to-signatures/1.2/Databases/Compounds/Fragment_library/Schrodinger

>  <s_m_Source_File>
schrodinger_fragment_collection_epik.maegz

>  <i_m_Source_File_Index>
134

>  <i_m_number_of_atoms>
15

>  <r_m_molecular_weight>
118.13927

>  <s_m_molecular_formula>
C7H6N2

>  <r_epik_Ionization_Penalty>
0.5218

>  <r_epik_Ionization_Penalty_Charging>
0.5218

>  <r_epik_Ionization_Penalty_Neutral>
0.0000

>  <r_epik_State_Penalty>
0.5218

>  <i_epik_Tot_Q>
1

>  <r_epik_Metal_State_Penalty>
0.7299

>  <b_epik_Metal_Only>
0

>  <s_canvas_Unique_SMILES_Stereo>
c1c[nH]c(c12)ccc[nH+]2

>  <s_m_subgroup_title>
schrodinger_fragment_collection_epik

>  <s_m_subgroupid>
schrodinger_fragment_collection_epik

>  <b_m_subgroup_collapsed>
0

$$$$
Schrodinger_fragment_431
 OpenBabel04062209313D
Schrodinger Suite 2020-2.
 23 24  0  0  1  0  0  0  0  0999 V2000
    2.5378   -3.0162   -0.2336 C   0  0  0  0  0  0  0  0  0  0  0  0
    2.4779   -1.6109    0.0261 C   0  0  0  0  0  0  0  0  0  0  0  0
    3.7923   -3.7463   -0.5479 C   0  0  0  0  0  0  0  0  0  0  0  0
    4.9464   -3.5086   -0.0632 N   0  0  0  0  0  0  0  0  0  0  0  0
    5.0828   -2.4887    0.9617 C   0  0  0  0  0  0  0  0  0  0  0  0
    4.8612   -1.0791    0.3895 C   0  0  0  0  0  0  0  0  0  0  0  0
    3.6243   -0.7420   -0.0586 N   0  0  0  0  0  0  0  0  0  0  0  0
    1.2217   -1.0312    0.3374 C   0  0  0  0  0  0  0  0  0  0  0  0
    0.0498   -1.8072    0.3778 C   0  0  0  0  0  0  0  0  0  0  0  0
    0.1107   -3.1815    0.0993 C   0  0  0  0  0  0  0  0  0  0  0  0
    1.3472   -3.7768   -0.2058 C   0  0  0  0  0  0  0  0  0  0  0  0
    5.8238   -0.3035    0.3637 O   0  0  0  0  0  0  0  0  0  0  0  0
    3.4289    0.6183   -0.5823 C   0  0  0  0  0  0  0  0  0  0  0  0
    3.6862   -4.5677   -1.2621 H   0  0  0  0  0  0  0  0  0  0  0  0
    4.4014   -2.6563    1.7991 H   0  0  0  0  0  0  0  0  0  0  0  0
    6.0848   -2.5409    1.3894 H   0  0  0  0  0  0  0  0  0  0  0  0
    1.1390    0.0247    0.5542 H   0  0  0  0  0  0  0  0  0  0  0  0
   -0.8979   -1.3445    0.6176 H   0  0  0  0  0  0  0  0  0  0  0  0
   -0.7892   -3.7809    0.1239 H   0  0  0  0  0  0  0  0  0  0  0  0
    1.3782   -4.8387   -0.4097 H   0  0  0  0  0  0  0  0  0  0  0  0
    4.2759    0.9533   -1.1833 H   0  0  0  0  0  0  0  0  0  0  0  0
    3.2942    1.3259    0.2365 H   0  0  0  0  0  0  0  0  0  0  0  0
    2.5576    0.6789   -1.2348 H   0  0  0  0  0  0  0  0  0  0  0  0
  1  2  2  0  0  0  0
  1  3  1  0  0  0  0
  1 11  1  0  0  0  0
  2  7  1  0  0  0  0
  2  8  1  0  0  0  0
  3  4  2  0  0  0  0
  3 14  1  0  0  0  0
  4  5  1  0  0  0  0
  5  6  1  0  0  0  0
  5 15  1  0  0  0  0
  5 16  1  0  0  0  0
  6  7  1  0  0  0  0
  6 12  2  0  0  0  0
  7 13  1  0  0  0  0
  8  9  2  0  0  0  0
  8 17  1  0  0  0  0
  9 10  1  0  0  0  0
  9 18  1  0  0  0  0
 10 11  2  0  0  0  0
 10 19  1  0  0  0  0
 11 20  1  0  0  0  0
 13 21  1  0  0  0  0
 13 22  1  0  0  0  0
 13 23  1  0  0  0  0
M  END
>  <s_m_entry_id>
7018

>  <s_m_entry_name>
Schrodinger_fragment_535

>  <s_m_Source_Path>
/aloy/home/agimeno/Documents/Starting_Project/Part1_SMILES-to-signatures/1.2/Databases/Compounds/Fragment_library/Schrodinger

>  <s_m_Source_File>
schrodinger_fragment_collection_epik.maegz

>  <i_m_Source_File_Index>
649

>  <i_m_number_of_atoms>
23

>  <r_m_molecular_weight>
174.204

>  <s_m_molecular_formula>
C10H10N2O1

>  <r_epik_Ionization_Penalty>
0.1358

>  <r_epik_Ionization_Penalty_Charging>
0.0000

>  <r_epik_Ionization_Penalty_Neutral>
0.1358

>  <r_epik_State_Penalty>
0.1358

>  <i_epik_Tot_Q>
0

>  <r_epik_Metal_State_Penalty>
0.1358

>  <b_epik_Metal_Only>
0

>  <s_canvas_Unique_SMILES_Stereo>
C1=NCC(=O)N(C)c(c12)cccc2

>  <s_m_subgroup_title>
schrodinger_fragment_collection_epik

>  <s_m_subgroupid>
schrodinger_fragment_collection_epik

>  <b_m_subgroup_collapsed>
0

$$$$
Schrodinger_fragment_154_a
 OpenBabel04062209313D
Schrodinger Suite 2020-2.
 22 23  0  0  1  0  0  0  0  0999 V2000
    4.4744   -2.6607    0.0546 C   0  0  0  0  0  0  0  0  0  0  0  0
    4.4671   -4.0778    0.0042 C   0  0  0  0  0  0  0  0  0  0  0  0
    5.6920   -4.7780   -0.0236 C   0  0  0  0  0  0  0  0  0  0  0  0
    6.9134   -4.0770   -0.0025 C   0  0  0  0  0  0  0  0  0  0  0  0
    6.9174   -2.6703    0.0461 C   0  0  0  0  0  0  0  0  0  0  0  0
    5.7004   -1.9633    0.0767 C   0  0  0  0  0  0  0  0  0  0  0  0
    3.1657   -1.8875    0.1279 C   0  0  0  0  0  0  0  0  0  0  0  0
    1.9612   -2.7288   -0.3222 C   0  0  0  0  0  0  0  0  0  0  0  0
    3.1537   -4.8606   -0.0492 C   0  0  0  0  0  0  0  0  0  0  0  0
    5.7000   -5.8589   -0.0673 H   0  0  0  0  0  0  0  0  0  0  0  0
    7.8488   -4.6196   -0.0255 H   0  0  0  0  0  0  0  0  0  0  0  0
    7.8557   -2.1325    0.0634 H   0  0  0  0  0  0  0  0  0  0  0  0
    5.7126   -0.8824    0.1232 H   0  0  0  0  0  0  0  0  0  0  0  0
    3.0230   -1.5532    1.1563 H   0  0  0  0  0  0  0  0  0  0  0  0
    3.2333   -0.9868   -0.4838 H   0  0  0  0  0  0  0  0  0  0  0  0
    1.0306   -2.2103   -0.0900 H   0  0  0  0  0  0  0  0  0  0  0  0
    1.9813   -2.8703   -1.4038 H   0  0  0  0  0  0  0  0  0  0  0  0
    3.0127   -5.2294   -1.0660 H   0  0  0  0  0  0  0  0  0  0  0  0
    3.2130   -5.7355    0.5993 H   0  0  0  0  0  0  0  0  0  0  0  0
    1.9848   -4.0470    0.3386 N   0  3  0  0  0  0  0  0  0  0  0  0
    1.9997   -3.9147    1.3355 H   0  0  0  0  0  0  0  0  0  0  0  0
    1.1478   -4.5564    0.1091 H   0  0  0  0  0  0  0  0  0  0  0  0
  1  2  2  0  0  0  0
  1  6  1  0  0  0  0
  1  7  1  0  0  0  0
  2  3  1  0  0  0  0
  2  9  1  0  0  0  0
  3  4  2  0  0  0  0
  3 10  1  0  0  0  0
  4  5  1  0  0  0  0
  4 11  1  0  0  0  0
  5  6  2  0  0  0  0
  5 12  1  0  0  0  0
  6 13  1  0  0  0  0
  7  8  1  0  0  0  0
  7 14  1  0  0  0  0
  7 15  1  0  0  0  0
  8 16  1  0  0  0  0
  8 17  1  0  0  0  0
  8 20  1  0  0  0  0
  9 18  1  0  0  0  0
  9 19  1  0  0  0  0
  9 20  1  0  0  0  0
 20 21  1  0  0  0  0
 20 22  1  0  0  0  0
M  CHG  1  20   1
M  END
>  <s_m_entry_id>
6565

>  <s_m_entry_name>
Schrodinger_fragment_202

>  <s_m_Source_Path>
/aloy/home/agimeno/Documents/Starting_Project/Part1_SMILES-to-signatures/1.2/Databases/Compounds/Fragment_library/Schrodinger

>  <s_m_Source_File>
schrodinger_fragment_collection_epik.maegz

>  <i_m_Source_File_Index>
196

>  <i_m_number_of_atoms>
22

>  <r_m_molecular_weight>
134.20269

>  <s_m_molecular_formula>
C9H12N1

>  <r_epik_Ionization_Penalty>
0.8228

>  <r_epik_Ionization_Penalty_Charging>
0.8228

>  <r_epik_Ionization_Penalty_Neutral>
0.0000

>  <r_epik_State_Penalty>
0.4114

>  <i_epik_Tot_Q>
1

>  <r_epik_Metal_State_Penalty>
0.4114

>  <b_epik_Metal_Only>
0

>  <s_canvas_Unique_SMILES_Stereo>
C1C[NH2+]Cc(c12)cccc2

>  <s_m_subgroup_title>
schrodinger_fragment_collection_epik

>  <s_m_subgroupid>
schrodinger_fragment_collection_epik

>  <b_m_subgroup_collapsed>
0

$$$$
Schrodinger_fragment_377
 OpenBabel04062209313D
Schrodinger Suite 2020-2.
 26 27  0  0  1  0  0  0  0  0999 V2000
    1.5658   -0.6399    0.2321 N   0  0  0  0  0  0  0  0  0  0  0  0
    1.2588   -2.2832   -0.1085 S   0  0  0  0  0  0  0  0  0  0  0  0
    2.8429   -2.9486    0.1294 N   0  0  0  0  0  0  0  0  0  0  0  0
    4.0028   -2.2347    0.0963 C   0  0  0  0  0  0  0  0  0  0  0  0
    3.9986   -0.8430   -0.2012 C   0  0  0  0  0  0  0  0  0  0  0  0
    2.7130   -0.0816   -0.4798 C   0  0  0  0  0  0  0  0  0  0  0  0
    5.2539   -2.8564    0.3543 C   0  0  0  0  0  0  0  0  0  0  0  0
    6.4569   -2.1282    0.3050 C   0  0  0  0  0  0  0  0  0  0  0  0
    6.4380   -0.7591   -0.0043 C   0  0  0  0  0  0  0  0  0  0  0  0
    5.2114   -0.1223   -0.2565 C   0  0  0  0  0  0  0  0  0  0  0  0
    0.9435   -2.4253   -1.5379 O   0  0  0  0  0  0  0  0  0  0  0  0
    0.3821   -2.8243    0.9418 O   0  0  0  0  0  0  0  0  0  0  0  0
    0.3874    0.2374    0.2329 C   0  0  0  0  0  0  0  0  0  0  0  0
    2.8610   -4.4028    0.2898 C   0  0  0  0  0  0  0  0  0  0  0  0
    2.5202   -0.0995   -1.5537 H   0  0  0  0  0  0  0  0  0  0  0  0
    2.8461    0.9632   -0.1958 H   0  0  0  0  0  0  0  0  0  0  0  0
    5.3277   -3.9059    0.5977 H   0  0  0  0  0  0  0  0  0  0  0  0
    7.3966   -2.6245    0.5039 H   0  0  0  0  0  0  0  0  0  0  0  0
    7.3618   -0.1977   -0.0458 H   0  0  0  0  0  0  0  0  0  0  0  0
    5.2052    0.9333   -0.4917 H   0  0  0  0  0  0  0  0  0  0  0  0
    0.6361    1.2280    0.6147 H   0  0  0  0  0  0  0  0  0  0  0  0
   -0.3947   -0.1806    0.8678 H   0  0  0  0  0  0  0  0  0  0  0  0
   -0.0137    0.3398   -0.7765 H   0  0  0  0  0  0  0  0  0  0  0  0
    3.5026   -4.8755   -0.4545 H   0  0  0  0  0  0  0  0  0  0  0  0
    1.8676   -4.8347    0.1622 H   0  0  0  0  0  0  0  0  0  0  0  0
    3.2070   -4.6806    1.2857 H   0  0  0  0  0  0  0  0  0  0  0  0
  1  2  1  0  0  0  0
  1  6  1  0  0  0  0
  1 13  1  0  0  0  0
  2  3  1  0  0  0  0
  2 11  2  0  0  0  0
  2 12  2  0  0  0  0
  3  4  1  0  0  0  0
  3 14  1  0  0  0  0
  4  5  2  0  0  0  0
  4  7  1  0  0  0  0
  5  6  1  0  0  0  0
  5 10  1  0  0  0  0
  6 15  1  0  0  0  0
  6 16  1  0  0  0  0
  7  8  2  0  0  0  0
  7 17  1  0  0  0  0
  8  9  1  0  0  0  0
  8 18  1  0  0  0  0
  9 10  2  0  0  0  0
  9 19  1  0  0  0  0
 10 20  1  0  0  0  0
 13 21  1  0  0  0  0
 13 22  1  0  0  0  0
 13 23  1  0  0  0  0
 14 24  1  0  0  0  0
 14 25  1  0  0  0  0
 14 26  1  0  0  0  0
M  END
>  <s_m_entry_id>
6913

>  <s_m_entry_name>
Schrodinger_fragment_470

>  <s_m_Source_Path>
/aloy/home/agimeno/Documents/Starting_Project/Part1_SMILES-to-signatures/1.2/Databases/Compounds/Fragment_library/Schrodinger

>  <s_m_Source_File>
schrodinger_fragment_collection_epik.maegz

>  <i_m_Source_File_Index>
544

>  <i_m_number_of_atoms>
26

>  <r_m_molecular_weight>
212.27219

>  <s_m_molecular_formula>
C9H12N2O2S1

>  <r_epik_Ionization_Penalty>
0.0000

>  <r_epik_Ionization_Penalty_Charging>
0.0000

>  <r_epik_Ionization_Penalty_Neutral>
0.0000

>  <r_epik_State_Penalty>
0.0000

>  <i_epik_Tot_Q>
0

>  <r_epik_Metal_State_Penalty>
0.0000

>  <b_epik_Metal_Only>
0

>  <s_canvas_Unique_SMILES_Stereo>
CN(C1)S(=O)(=O)N(C)c(c12)cccc2

>  <s_m_subgroup_title>
schrodinger_fragment_collection_epik

>  <s_m_subgroupid>
schrodinger_fragment_collection_epik

>  <b_m_subgroup_collapsed>
0

$$$$
Schrodinger_fragment_229
 OpenBabel04062209313D
Schrodinger Suite 2020-2.
 21 21  0  0  1  0  0  0  0  0999 V2000
    3.0148    1.5962    0.4387 C   0  0  0  0  0  0  0  0  0  0  0  0
    2.5322    0.2013   -0.0156 C   0  0  0  0  0  0  0  0  0  0  0  0
    0.1480    0.8923    0.4579 C   0  0  0  0  0  0  0  0  0  0  0  0
   -0.0521    2.3042   -0.1261 C   0  0  0  0  0  0  0  0  0  0  0  0
    1.1116    3.2765    0.1263 C   0  0  0  0  0  0  0  0  0  0  0  0
    2.4783    2.7838   -0.3794 C   0  0  0  0  0  0  0  0  0  0  0  0
    2.7862    1.7435    1.4951 H   0  0  0  0  0  0  0  0  0  0  0  0
    4.1044    1.5979    0.3863 H   0  0  0  0  0  0  0  0  0  0  0  0
    3.1005   -0.1205   -0.8890 H   0  0  0  0  0  0  0  0  0  0  0  0
    2.7570   -0.5212    0.7699 H   0  0  0  0  0  0  0  0  0  0  0  0
    0.4435    0.9187    1.5077 H   0  0  0  0  0  0  0  0  0  0  0  0
   -0.8108    0.3733    0.4283 H   0  0  0  0  0  0  0  0  0  0  0  0
   -0.2608    2.2416   -1.1950 H   0  0  0  0  0  0  0  0  0  0  0  0
   -0.9506    2.7342    0.3185 H   0  0  0  0  0  0  0  0  0  0  0  0
    0.8786    4.2260   -0.3581 H   0  0  0  0  0  0  0  0  0  0  0  0
    1.1752    3.5016    1.1922 H   0  0  0  0  0  0  0  0  0  0  0  0
    3.1848    3.6097   -0.2822 H   0  0  0  0  0  0  0  0  0  0  0  0
    2.4462    2.5474   -1.4440 H   0  0  0  0  0  0  0  0  0  0  0  0
    1.0936    0.0990   -0.3532 N   0  3  0  0  0  0  0  0  0  0  0  0
    0.9642    0.3431   -1.3211 H   0  0  0  0  0  0  0  0  0  0  0  0
    0.8403   -0.8727   -0.2684 H   0  0  0  0  0  0  0  0  0  0  0  0
  1  2  1  0  0  0  0
  1  6  1  0  0  0  0
  1  7  1  0  0  0  0
  1  8  1  0  0  0  0
  2  9  1  0  0  0  0
  2 10  1  0  0  0  0
  2 19  1  0  0  0  0
  3  4  1  0  0  0  0
  3 11  1  0  0  0  0
  3 12  1  0  0  0  0
  3 19  1  0  0  0  0
  4  5  1  0  0  0  0
  4 13  1  0  0  0  0
  4 14  1  0  0  0  0
  5  6  1  0  0  0  0
  5 15  1  0  0  0  0
  5 16  1  0  0  0  0
  6 17  1  0  0  0  0
  6 18  1  0  0  0  0
 19 20  1  0  0  0  0
 19 21  1  0  0  0  0
M  CHG  1  19   1
M  END
>  <s_m_entry_id>
6668

>  <s_m_entry_name>
Schrodinger_fragment_290

>  <s_m_Source_Path>
/aloy/home/agimeno/Documents/Starting_Project/Part1_SMILES-to-signatures/1.2/Databases/Compounds/Fragment_library/Schrodinger

>  <s_m_Source_File>
schrodinger_fragment_collection_epik.maegz

>  <i_m_Source_File_Index>
299

>  <i_m_number_of_atoms>
21

>  <r_m_molecular_weight>
100.18518

>  <s_m_molecular_formula>
C6H14N1

>  <r_epik_Ionization_Penalty>
0.0003

>  <r_epik_Ionization_Penalty_Charging>
0.0003

>  <r_epik_Ionization_Penalty_Neutral>
0.0000

>  <r_epik_State_Penalty>
0.0000

>  <i_epik_Tot_Q>
1

>  <r_epik_Metal_State_Penalty>
0.0000

>  <b_epik_Metal_Only>
0

>  <s_canvas_Unique_SMILES_Stereo>
C1CCC[NH2+]CC1

>  <s_m_subgroup_title>
schrodinger_fragment_collection_epik

>  <s_m_subgroupid>
schrodinger_fragment_collection_epik

>  <b_m_subgroup_collapsed>
0

$$$$
Schrodinger_fragment_372
 OpenBabel04062209313D
Schrodinger Suite 2020-2.
 23 24  0  0  1  0  0  0  0  0999 V2000
    5.5329   -2.0276    0.1412 C   0  0  0  0  0  0  0  0  0  0  0  0
    5.3646   -3.4262    0.1829 C   0  0  0  0  0  0  0  0  0  0  0  0
    4.0769   -3.9932    0.0849 C   0  0  0  0  0  0  0  0  0  0  0  0
    2.9413   -3.1674   -0.0598 C   0  0  0  0  0  0  0  0  0  0  0  0
    3.1259   -1.7615   -0.1066 C   0  0  0  0  0  0  0  0  0  0  0  0
    4.4086   -1.1908   -0.0015 C   0  0  0  0  0  0  0  0  0  0  0  0
    1.7151   -3.7384   -0.1391 N   0  0  0  0  0  0  0  0  0  0  0  0
    0.4629   -3.0623   -0.4695 C   0  0  0  0  0  0  0  0  0  0  0  0
    0.4489   -1.7712    0.2299 N   0  0  0  0  0  0  0  0  0  0  0  0
    1.6979   -0.6960   -0.2725 S   0  0  0  0  0  0  0  0  0  0  0  0
    1.4792   -0.4084   -1.7008 O   0  0  0  0  0  0  0  0  0  0  0  0
    1.7649    0.4117    0.6970 O   0  0  0  0  0  0  0  0  0  0  0  0
    0.1744   -1.8703    1.6743 C   0  0  0  0  0  0  0  0  0  0  0  0
    6.5221   -1.5975    0.2203 H   0  0  0  0  0  0  0  0  0  0  0  0
    6.2269   -4.0692    0.2937 H   0  0  0  0  0  0  0  0  0  0  0  0
    3.9732   -5.0686    0.1252 H   0  0  0  0  0  0  0  0  0  0  0  0
    4.5193   -0.1168   -0.0319 H   0  0  0  0  0  0  0  0  0  0  0  0
    1.6892   -4.7535   -0.2025 H   0  0  0  0  0  0  0  0  0  0  0  0
    0.3957   -2.9039   -1.5482 H   0  0  0  0  0  0  0  0  0  0  0  0
   -0.3955   -3.6716   -0.1793 H   0  0  0  0  0  0  0  0  0  0  0  0
   -0.0328   -0.8845    2.0915 H   0  0  0  0  0  0  0  0  0  0  0  0
    1.0313   -2.2907    2.2021 H   0  0  0  0  0  0  0  0  0  0  0  0
   -0.6940   -2.5017    1.8641 H   0  0  0  0  0  0  0  0  0  0  0  0
  1  2  2  0  0  0  0
  1  6  1  0  0  0  0
  1 14  1  0  0  0  0
  2  3  1  0  0  0  0
  2 15  1  0  0  0  0
  3  4  2  0  0  0  0
  3 16  1  0  0  0  0
  4  5  1  0  0  0  0
  4  7  1  0  0  0  0
  5  6  2  0  0  0  0
  5 10  1  0  0  0  0
  6 17  1  0  0  0  0
  7  8  1  0  0  0  0
  7 18  1  0  0  0  0
  8  9  1  0  0  0  0
  8 19  1  0  0  0  0
  8 20  1  0  0  0  0
  9 10  1  0  0  0  0
  9 13  1  0  0  0  0
 10 11  2  0  0  0  0
 10 12  2  0  0  0  0
 13 21  1  0  0  0  0
 13 22  1  0  0  0  0
 13 23  1  0  0  0  0
M  END
>  <s_m_entry_id>
6904

>  <s_m_entry_name>
Schrodinger_fragment_463

>  <s_m_Source_Path>
/aloy/home/agimeno/Documents/Starting_Project/Part1_SMILES-to-signatures/1.2/Databases/Compounds/Fragment_library/Schrodinger

>  <s_m_Source_File>
schrodinger_fragment_collection_epik.maegz

>  <i_m_Source_File_Index>
535

>  <i_m_number_of_atoms>
23

>  <r_m_molecular_weight>
198.2451

>  <s_m_molecular_formula>
C8H10N2O2S1

>  <r_epik_Ionization_Penalty>
0.0000

>  <r_epik_Ionization_Penalty_Charging>
0.0000

>  <r_epik_Ionization_Penalty_Neutral>
0.0000

>  <r_epik_State_Penalty>
0.0000

>  <i_epik_Tot_Q>
0

>  <r_epik_Metal_State_Penalty>
0.0000

>  <b_epik_Metal_Only>
0

>  <s_canvas_Unique_SMILES_Stereo>
N1CN(C)S(=O)(=O)c(c12)cccc2

>  <s_m_subgroup_title>
schrodinger_fragment_collection_epik

>  <s_m_subgroupid>
schrodinger_fragment_collection_epik

>  <b_m_subgroup_collapsed>
0

$$$$
Schrodinger_fragment_90
 OpenBabel04062209313D
Schrodinger Suite 2020-2.
  7  7  0  0  1  0  0  0  0  0999 V2000
    1.8508    2.1784    0.0250 N   0  0  0  0  0  0  0  0  0  0  0  0
    0.4622    2.1801    0.0227 N   0  0  0  0  0  0  0  0  0  0  0  0
    2.3432    0.9305    0.0245 C   0  0  0  0  0  0  0  0  0  0  0  0
    1.1535   -0.3621    0.0211 S   0  0  0  0  0  0  0  0  0  0  0  0
   -0.0331    0.9333    0.0205 C   0  0  0  0  0  0  0  0  0  0  0  0
    3.4115    0.7669    0.0261 H   0  0  0  0  0  0  0  0  0  0  0  0
   -1.1018    0.7723    0.0185 H   0  0  0  0  0  0  0  0  0  0  0  0
  1  2  1  0  0  0  0
  1  3  2  0  0  0  0
  2  5  2  0  0  0  0
  3  4  1  0  0  0  0
  3  6  1  0  0  0  0
  4  5  1  0  0  0  0
  5  7  1  0  0  0  0
M  END
>  <s_m_entry_id>
6481

>  <s_m_entry_name>
Schrodinger_fragment_102

>  <s_m_Source_Path>
/aloy/home/agimeno/Documents/Starting_Project/Part1_SMILES-to-signatures/1.2/Databases/Compounds/Fragment_library/Schrodinger

>  <s_m_Source_File>
schrodinger_fragment_collection_epik.maegz

>  <i_m_Source_File_Index>
112

>  <i_m_number_of_atoms>
7

>  <r_m_molecular_weight>
86.11564

>  <s_m_molecular_formula>
C2H2N2S1

>  <r_epik_Ionization_Penalty>
0.0000

>  <r_epik_Ionization_Penalty_Charging>
0.0000

>  <r_epik_Ionization_Penalty_Neutral>
0.0000

>  <r_epik_State_Penalty>
0.0000

>  <i_epik_Tot_Q>
0

>  <r_epik_Metal_State_Penalty>
0.0000

>  <b_epik_Metal_Only>
0

>  <s_canvas_Unique_SMILES_Stereo>
c1nncs1

>  <s_m_subgroup_title>
schrodinger_fragment_collection_epik

>  <s_m_subgroupid>
schrodinger_fragment_collection_epik

>  <b_m_subgroup_collapsed>
0

$$$$
Schrodinger_fragment_136
 OpenBabel04062209313D
Schrodinger Suite 2020-2.
 18 19  0  0  1  0  0  0  0  0999 V2000
    4.1943   -2.6779    0.0258 C   0  0  0  0  0  0  0  0  0  0  0  0
    4.1876   -4.0825    0.0236 C   0  0  0  0  0  0  0  0  0  0  0  0
    5.4067   -4.7506    0.0248 C   0  0  0  0  0  0  0  0  0  0  0  0
    6.5655   -2.7414    0.0301 C   0  0  0  0  0  0  0  0  0  0  0  0
    5.3857   -1.9692    0.0291 C   0  0  0  0  0  0  0  0  0  0  0  0
    2.8618   -2.2729    0.0239 N   0  3  0  0  0  0  0  0  0  0  0  0
    2.0400   -3.3605    0.0207 C   0  0  0  0  0  0  0  0  0  0  0  0
    2.8426   -4.4683    0.0205 N   0  0  0  0  0  0  0  0  0  0  0  0
    2.5073   -5.8970    0.0176 C   0  0  0  0  0  0  0  0  0  0  0  0
    5.4516   -5.8297    0.0231 H   0  0  0  0  0  0  0  0  0  0  0  0
    7.5303   -2.2514    0.0326 H   0  0  0  0  0  0  0  0  0  0  0  0
    5.4291   -0.8897    0.0309 H   0  0  0  0  0  0  0  0  0  0  0  0
    0.9544   -3.3385    0.0187 H   0  0  0  0  0  0  0  0  0  0  0  0
    1.4228   -6.0183    0.0154 H   0  0  0  0  0  0  0  0  0  0  0  0
    2.9159   -6.3734    0.9104 H   0  0  0  0  0  0  0  0  0  0  0  0
    2.9191   -6.3706   -0.8752 H   0  0  0  0  0  0  0  0  0  0  0  0
    6.5878   -4.0943    0.0280 N   0  0  0  0  0  0  0  0  0  0  0  0
    2.5178   -1.3208    0.0248 H   0  0  0  0  0  0  0  0  0  0  0  0
  1  2  2  0  0  0  0
  1  5  1  0  0  0  0
  1  6  1  0  0  0  0
  2  3  1  0  0  0  0
  2  8  1  0  0  0  0
  3 10  1  0  0  0  0
  3 17  2  0  0  0  0
  4  5  2  0  0  0  0
  4 11  1  0  0  0  0
  4 17  1  0  0  0  0
  5 12  1  0  0  0  0
  6  7  2  0  0  0  0
  6 18  1  0  0  0  0
  7  8  1  0  0  0  0
  7 13  1  0  0  0  0
  8  9  1  0  0  0  0
  9 14  1  0  0  0  0
  9 15  1  0  0  0  0
  9 16  1  0  0  0  0
M  CHG  1   6   1
M  END
>  <s_m_entry_id>
6536

>  <s_m_entry_name>
Schrodinger_fragment_170

>  <s_m_Source_Path>
/aloy/home/agimeno/Documents/Starting_Project/Part1_SMILES-to-signatures/1.2/Databases/Compounds/Fragment_library/Schrodinger

>  <s_m_Source_File>
schrodinger_fragment_collection_epik.maegz

>  <i_m_Source_File_Index>
167

>  <i_m_number_of_atoms>
18

>  <r_m_molecular_weight>
134.16191

>  <s_m_molecular_formula>
C7H8N3

>  <r_epik_Ionization_Penalty>
0.4315

>  <r_epik_Ionization_Penalty_Charging>
0.4315

>  <r_epik_Ionization_Penalty_Neutral>
0.0000

>  <r_epik_State_Penalty>
0.4315

>  <i_epik_Tot_Q>
1

>  <r_epik_Metal_State_Penalty>
0.6645

>  <b_epik_Metal_Only>
0

>  <s_canvas_Unique_SMILES_Stereo>
Cn1c[nH+]c(c12)ccnc2

>  <s_m_subgroup_title>
schrodinger_fragment_collection_epik

>  <s_m_subgroupid>
schrodinger_fragment_collection_epik

>  <b_m_subgroup_collapsed>
0

$$$$
Schrodinger_fragment_147_a
 OpenBabel04062209313D
Schrodinger Suite 2020-2.
 12 13  0  0  1  0  0  0  0  0999 V2000
    2.1397    2.0978    0.0221 C   0  0  0  0  0  0  0  0  0  0  0  0
    2.1778    0.7202    0.0238 C   0  0  0  0  0  0  0  0  0  0  0  0
    3.3431    0.0506    0.0263 N   0  0  0  0  0  0  0  0  0  0  0  0
    4.4538    0.7918    0.0270 C   0  0  0  0  0  0  0  0  0  0  0  0
    4.5292    2.1239    0.0256 N   0  0  0  0  0  0  0  0  0  0  0  0
    3.3568    2.7962    0.0230 C   0  0  0  0  0  0  0  0  0  0  0  0
    0.9022    2.5858    0.0197 N   0  0  0  0  0  0  0  0  0  0  0  0
    0.1875    1.4148    0.0200 N   0  0  0  0  0  0  0  0  0  0  0  0
    0.9268    0.2561    0.0225 N   0  0  0  0  0  0  0  0  0  0  0  0
    5.3908    0.2559    0.0291 H   0  0  0  0  0  0  0  0  0  0  0  0
    3.3958    3.8756    0.0218 H   0  0  0  0  0  0  0  0  0  0  0  0
   -0.8268    1.4025    0.0186 H   0  0  0  0  0  0  0  0  0  0  0  0
  1  6  1  0  0  0  0
  1  2  1  0  0  0  0
  1  7  2  0  0  0  0
  2  3  1  0  0  0  0
  2  9  2  0  0  0  0
  3  4  2  0  0  0  0
  4  5  1  0  0  0  0
  4 10  1  0  0  0  0
  5  6  2  0  0  0  0
  6 11  1  0  0  0  0
  7  8  1  0  0  0  0
  8 12  1  0  0  0  0
  8  9  1  0  0  0  0
M  END
>  <s_m_entry_id>
6554

>  <s_m_entry_name>
Schrodinger_fragment_192

>  <s_m_Source_Path>
/aloy/home/agimeno/Documents/Starting_Project/Part1_SMILES-to-signatures/1.2/Databases/Compounds/Fragment_library/Schrodinger

>  <s_m_Source_File>
schrodinger_fragment_collection_epik.maegz

>  <i_m_Source_File_Index>
185

>  <i_m_number_of_atoms>
12

>  <r_m_molecular_weight>
121.10201

>  <s_m_molecular_formula>
C4H3N5

>  <r_epik_Ionization_Penalty>
2.3978

>  <r_epik_Ionization_Penalty_Charging>
0.0000

>  <r_epik_Ionization_Penalty_Neutral>
2.3978

>  <r_epik_State_Penalty>
2.3978

>  <i_epik_Tot_Q>
0

>  <r_epik_Metal_State_Penalty>
2.4081

>  <b_epik_Metal_Only>
0

>  <s_canvas_Unique_SMILES_Stereo>
n1[nH]nc(c12)ncnc2

>  <s_m_subgroup_title>
schrodinger_fragment_collection_epik

>  <s_m_subgroupid>
schrodinger_fragment_collection_epik

>  <b_m_subgroup_collapsed>
0

$$$$
Schrodinger_fragment_227
 OpenBabel04062209313D
Schrodinger Suite 2020-2.
 15 15  0  0  1  0  0  0  0  0999 V2000
    1.4554   -0.8375    0.3422 C   0  0  0  0  0  0  0  0  0  0  0  0
    1.4108   -2.2077    0.1068 N   0  0  0  0  0  0  0  0  0  0  0  0
    2.6202   -2.9212   -0.0531 C   0  0  0  0  0  0  0  0  0  0  0  0
    3.8000   -2.1987    0.0364 N   0  0  0  0  0  0  0  0  0  0  0  0
    3.8996   -0.8291    0.2702 C   0  0  0  0  0  0  0  0  0  0  0  0
    2.6190   -0.1456    0.4268 C   0  0  0  0  0  0  0  0  0  0  0  0
    5.0091   -0.2951    0.3292 O   0  0  0  0  0  0  0  0  0  0  0  0
    0.2740   -0.1716    0.4928 O   0  5  0  0  0  0  0  0  0  0  0  0
    2.6525   -4.1318   -0.2635 O   0  0  0  0  0  0  0  0  0  0  0  0
    0.2084   -3.0090    0.0045 C   0  0  0  0  0  0  0  0  0  0  0  0
    4.6663   -2.7088   -0.0778 H   0  0  0  0  0  0  0  0  0  0  0  0
    2.6189    0.9203    0.6110 H   0  0  0  0  0  0  0  0  0  0  0  0
    0.2500   -3.7689    0.7880 H   0  0  0  0  0  0  0  0  0  0  0  0
    0.1952   -3.4595   -0.9904 H   0  0  0  0  0  0  0  0  0  0  0  0
   -0.6742   -2.3858    0.1402 H   0  0  0  0  0  0  0  0  0  0  0  0
  1  2  1  0  0  0  0
  1  6  2  0  0  0  0
  1  8  1  0  0  0  0
  2  3  1  0  0  0  0
  2 10  1  0  0  0  0
  3  4  1  0  0  0  0
  3  9  2  0  0  0  0
  4  5  1  0  0  0  0
  4 11  1  0  0  0  0
  5  6  1  0  0  0  0
  5  7  2  0  0  0  0
  6 12  1  0  0  0  0
 10 13  1  0  0  0  0
 10 14  1  0  0  0  0
 10 15  1  0  0  0  0
M  CHG  1   8  -1
M  END
>  <s_m_entry_id>
6663

>  <s_m_entry_name>
Schrodinger_fragment_288

>  <s_m_Source_Path>
/aloy/home/agimeno/Documents/Starting_Project/Part1_SMILES-to-signatures/1.2/Databases/Compounds/Fragment_library/Schrodinger

>  <s_m_Source_File>
schrodinger_fragment_collection_epik.maegz

>  <i_m_Source_File_Index>
294

>  <i_m_number_of_atoms>
16

>  <r_m_molecular_weight>
142.11517

>  <s_m_molecular_formula>
C5H6N2O3

>  <r_epik_Ionization_Penalty>
0.0008

>  <r_epik_Ionization_Penalty_Charging>
0.0001

>  <r_epik_Ionization_Penalty_Neutral>
0.0007

>  <r_epik_State_Penalty>
0.0126

>  <i_epik_Tot_Q>
-1

>  <r_epik_Metal_State_Penalty>
0.0176

>  <b_epik_Metal_Only>
0

>  <s_canvas_Unique_SMILES_Stereo>
Cn1c(=O)[nH]c(=O)cc1[O-]

>  <s_m_subgroup_title>
schrodinger_fragment_collection_epik

>  <s_m_subgroupid>
schrodinger_fragment_collection_epik

>  <b_m_subgroup_collapsed>
0

$$$$
Schrodinger_fragment_265
 OpenBabel04062209313D
Schrodinger Suite 2020-2.
 18 19  0  0  1  0  0  0  0  0999 V2000
    2.1787    3.2063    0.0237 C   0  0  0  0  0  0  0  0  0  0  0  0
    2.1939    1.8210    0.0239 C   0  0  0  0  0  0  0  0  0  0  0  0
    3.3926    1.0867    0.0272 C   0  0  0  0  0  0  0  0  0  0  0  0
    4.6043    1.8162    0.0304 C   0  0  0  0  0  0  0  0  0  0  0  0
    4.5934    3.2343    0.0302 C   0  0  0  0  0  0  0  0  0  0  0  0
    3.3724    3.9489    0.0268 C   0  0  0  0  0  0  0  0  0  0  0  0
    0.7737    3.6123    0.0199 C   0  0  0  0  0  0  0  0  0  0  0  0
    0.0350    2.4206    0.0180 N   0  0  0  0  0  0  0  0  0  0  0  0
    0.7988    1.3185    0.0202 C   0  0  0  0  0  0  0  0  0  0  0  0
    0.4449    0.1369    0.0194 O   0  0  0  0  0  0  0  0  0  0  0  0
    0.2541    4.8499    0.0183 C   0  0  0  0  0  0  0  0  0  0  0  0
    3.3843    0.0054    0.0273 H   0  0  0  0  0  0  0  0  0  0  0  0
    5.5479    1.2875    0.0330 H   0  0  0  0  0  0  0  0  0  0  0  0
    5.5292    3.7764    0.0326 H   0  0  0  0  0  0  0  0  0  0  0  0
    3.3582    5.0299    0.0266 H   0  0  0  0  0  0  0  0  0  0  0  0
   -0.9747    2.4074    0.0153 H   0  0  0  0  0  0  0  0  0  0  0  0
   -0.8139    5.0160    0.0154 H   0  0  0  0  0  0  0  0  0  0  0  0
    0.8914    5.7229    0.0199 H   0  0  0  0  0  0  0  0  0  0  0  0
  1  2  1  0  0  0  0
  1  6  2  0  0  0  0
  1  7  1  0  0  0  0
  2  3  2  0  0  0  0
  2  9  1  0  0  0  0
  3  4  1  0  0  0  0
  3 12  1  0  0  0  0
  4  5  2  0  0  0  0
  4 13  1  0  0  0  0
  5  6  1  0  0  0  0
  5 14  1  0  0  0  0
  6 15  1  0  0  0  0
  7  8  1  0  0  0  0
  7 11  2  0  0  0  0
  8  9  1  0  0  0  0
  8 16  1  0  0  0  0
  9 10  2  0  0  0  0
 11 17  1  0  0  0  0
 11 18  1  0  0  0  0
M  END
>  <s_m_entry_id>
6711

>  <s_m_entry_name>
Schrodinger_fragment_326

>  <s_m_Source_Path>
/aloy/home/agimeno/Documents/Starting_Project/Part1_SMILES-to-signatures/1.2/Databases/Compounds/Fragment_library/Schrodinger

>  <s_m_Source_File>
schrodinger_fragment_collection_epik.maegz

>  <i_m_Source_File_Index>
342

>  <i_m_number_of_atoms>
18

>  <r_m_molecular_weight>
145.16224

>  <s_m_molecular_formula>
C9H7N1O1

>  <r_epik_Ionization_Penalty>
0.0001

>  <r_epik_Ionization_Penalty_Charging>
0.0000

>  <r_epik_Ionization_Penalty_Neutral>
0.0001

>  <r_epik_State_Penalty>
0.0000

>  <i_epik_Tot_Q>
0

>  <r_epik_Metal_State_Penalty>
0.0913

>  <b_epik_Metal_Only>
0

>  <s_canvas_Unique_SMILES_Stereo>
C=C1NC(=O)c(c12)cccc2

>  <s_m_subgroup_title>
schrodinger_fragment_collection_epik

>  <s_m_subgroupid>
schrodinger_fragment_collection_epik

>  <b_m_subgroup_collapsed>
0

$$$$
Schrodinger_fragment_419_a
 OpenBabel04062209313D
Schrodinger Suite 2020-2.
 23 24  0  0  1  0  0  0  0  0999 V2000
    1.4605   -2.2455    0.0645 N   0  0  0  0  0  0  0  0  0  0  0  0
    1.4291   -3.6069   -0.0620 C   0  0  0  0  0  0  0  0  0  0  0  0
    2.5971   -4.3076    0.0649 N   0  0  0  0  0  0  0  0  0  0  0  0
    3.8776   -3.6576   -0.0291 C   0  0  0  0  0  0  0  0  0  0  0  0
    3.8946   -2.2519    0.0837 C   0  0  0  0  0  0  0  0  0  0  0  0
    2.5966   -1.5210    0.2431 C   0  0  0  0  0  0  0  0  0  0  0  0
    5.1263   -4.2925   -0.2496 C   0  0  0  0  0  0  0  0  0  0  0  0
    6.2907   -3.6311   -0.3081 N   0  0  0  0  0  0  0  0  0  0  0  0
    6.2951   -2.2876   -0.1612 C   0  0  0  0  0  0  0  0  0  0  0  0
    5.1202   -1.5581    0.0273 C   0  0  0  0  0  0  0  0  0  0  0  0
    0.3574   -4.1957   -0.2578 O   0  0  0  0  0  0  0  0  0  0  0  0
    2.6052   -0.3019    0.4743 O   0  0  0  0  0  0  0  0  0  0  0  0
    5.3041   -5.6193   -0.4779 O   0  5  0  0  0  0  0  0  0  0  0  0
    0.1617   -1.5373    0.0414 C   0  0  0  0  0  0  0  0  0  0  0  0
    2.5024   -5.7626    0.2803 C   0  0  0  0  0  0  0  0  0  0  0  0
    7.2536   -1.7922   -0.2128 H   0  0  0  0  0  0  0  0  0  0  0  0
    5.1554   -0.4805    0.1197 H   0  0  0  0  0  0  0  0  0  0  0  0
    0.2340   -0.4491    0.0548 H   0  0  0  0  0  0  0  0  0  0  0  0
   -0.4411   -1.8270    0.9037 H   0  0  0  0  0  0  0  0  0  0  0  0
   -0.4007   -1.7907   -0.8590 H   0  0  0  0  0  0  0  0  0  0  0  0
    3.2492   -6.0989    0.9996 H   0  0  0  0  0  0  0  0  0  0  0  0
    2.6490   -6.2999   -0.6575 H   0  0  0  0  0  0  0  0  0  0  0  0
    1.5466   -6.0861    0.6970 H   0  0  0  0  0  0  0  0  0  0  0  0
  1  2  1  0  0  0  0
  1  6  1  0  0  0  0
  1 14  1  0  0  0  0
  2  3  1  0  0  0  0
  2 11  2  0  0  0  0
  3  4  1  0  0  0  0
  3 15  1  0  0  0  0
  4  5  2  0  0  0  0
  4  7  1  0  0  0  0
  5  6  1  0  0  0  0
  5 10  1  0  0  0  0
  6 12  2  0  0  0  0
  7  8  2  0  0  0  0
  7 13  1  0  0  0  0
  8  9  1  0  0  0  0
  9 10  2  0  0  0  0
  9 16  1  0  0  0  0
 10 17  1  0  0  0  0
 14 18  1  0  0  0  0
 14 19  1  0  0  0  0
 14 20  1  0  0  0  0
 15 21  1  0  0  0  0
 15 22  1  0  0  0  0
 15 23  1  0  0  0  0
M  CHG  1  13  -1
M  END
>  <s_m_entry_id>
7003

>  <s_m_entry_name>
Schrodinger_fragment_523

>  <s_m_Source_Path>
/aloy/home/agimeno/Documents/Starting_Project/Part1_SMILES-to-signatures/1.2/Databases/Compounds/Fragment_library/Schrodinger

>  <s_m_Source_File>
schrodinger_fragment_collection_epik.maegz

>  <i_m_Source_File_Index>
634

>  <i_m_number_of_atoms>
24

>  <r_m_molecular_weight>
207.19038

>  <s_m_molecular_formula>
C9H9N3O3

>  <r_epik_Ionization_Penalty>
4.1051

>  <r_epik_Ionization_Penalty_Charging>
0.0023

>  <r_epik_Ionization_Penalty_Neutral>
4.1028

>  <r_epik_State_Penalty>
4.1022

>  <i_epik_Tot_Q>
-1

>  <r_epik_Metal_State_Penalty>
0.4154

>  <b_epik_Metal_Only>
1

>  <s_canvas_Unique_SMILES_Stereo>
O=c1n(C)c(=O)n(C)c(c12)c([O-])ncc2

>  <s_m_subgroup_title>
schrodinger_fragment_collection_epik

>  <s_m_subgroupid>
schrodinger_fragment_collection_epik

>  <b_m_subgroup_collapsed>
0

$$$$
Schrodinger_fragment_224_a
 OpenBabel04062209313D
Schrodinger Suite 2020-2.
 16 16  0  0  1  0  0  0  0  0999 V2000
    0.6416   -2.1713    0.0376 N   0  0  0  0  0  0  0  0  0  0  0  0
    0.6469   -3.5358    0.5850 C   0  0  0  0  0  0  0  0  0  0  0  0
    1.8184   -4.3204    0.1710 N   0  0  0  0  0  0  0  0  0  0  0  0
    2.9482   -3.7562    0.0512 C   0  0  0  0  0  0  0  0  0  0  0  0
    3.0802   -2.2447    0.2899 C   0  0  0  0  0  0  0  0  0  0  0  0
    1.7970   -1.4905   -0.0886 C   0  0  0  0  0  0  0  0  0  0  0  0
    1.8568   -0.3155   -0.4759 O   0  0  0  0  0  0  0  0  0  0  0  0
    3.9746   -4.3707   -0.2528 O   0  5  0  0  0  0  0  0  0  0  0  0
   -0.6547   -1.5658   -0.2712 C   0  0  0  0  0  0  0  0  0  0  0  0
    0.5944   -3.4795    1.6748 H   0  0  0  0  0  0  0  0  0  0  0  0
   -0.2568   -4.0579    0.2653 H   0  0  0  0  0  0  0  0  0  0  0  0
    3.3035   -2.0559    1.3409 H   0  0  0  0  0  0  0  0  0  0  0  0
    3.9103   -1.8388   -0.2912 H   0  0  0  0  0  0  0  0  0  0  0  0
   -0.7429   -0.5774    0.1824 H   0  0  0  0  0  0  0  0  0  0  0  0
   -1.4864   -2.1662    0.0981 H   0  0  0  0  0  0  0  0  0  0  0  0
   -0.7711   -1.4560   -1.3498 H   0  0  0  0  0  0  0  0  0  0  0  0
  1  2  1  0  0  0  0
  1  6  1  0  0  0  0
  1  9  1  0  0  0  0
  2  3  1  0  0  0  0
  2 10  1  0  0  0  0
  2 11  1  0  0  0  0
  3  4  2  0  0  0  0
  4  5  1  0  0  0  0
  4  8  1  0  0  0  0
  5  6  1  0  0  0  0
  5 12  1  0  0  0  0
  5 13  1  0  0  0  0
  6  7  2  0  0  0  0
  9 14  1  0  0  0  0
  9 15  1  0  0  0  0
  9 16  1  0  0  0  0
M  CHG  1   8  -1
M  END
>  <s_m_entry_id>
6659

>  <s_m_entry_name>
Schrodinger_fragment_282

>  <s_m_Source_Path>
/aloy/home/agimeno/Documents/Starting_Project/Part1_SMILES-to-signatures/1.2/Databases/Compounds/Fragment_library/Schrodinger

>  <s_m_Source_File>
schrodinger_fragment_collection_epik.maegz

>  <i_m_Source_File_Index>
290

>  <i_m_number_of_atoms>
17

>  <r_m_molecular_weight>
128.13171

>  <s_m_molecular_formula>
C5H8N2O2

>  <r_epik_Ionization_Penalty>
6.6149

>  <r_epik_Ionization_Penalty_Charging>
6.6145

>  <r_epik_Ionization_Penalty_Neutral>
0.0004

>  <r_epik_State_Penalty>
6.6145

>  <i_epik_Tot_Q>
-1

>  <r_epik_Metal_State_Penalty>
2.5301

>  <b_epik_Metal_Only>
1

>  <s_canvas_Unique_SMILES_Stereo>
C1C(=O)N(C)CN=C1[O-]

>  <s_m_subgroup_title>
schrodinger_fragment_collection_epik

>  <s_m_subgroupid>
schrodinger_fragment_collection_epik

>  <b_m_subgroup_collapsed>
0

$$$$
