Enamine T0505-3993
  rDOCK(R)          3D
libRbt.so/2021.1/901 2021/07/19
 28 30  0  0  0  0  0  0  0  0999 V2000
   -6.2313    5.3888   14.8638 S   0  0  0  0  0  0
   -4.6875    2.2171   13.0480 C   0  0  0  0  0  0
   -6.7674    3.8604   14.3747 N   0  0  0  0  0  0
   -5.1787    1.9376   14.4065 C   0  0  0  0  0  0
   -6.1906    2.7060   14.9977 C   0  0  0  0  0  0
   -4.5720    5.4594   14.1959 C   0  0  0  0  0  0
   -3.3373    2.2334   12.8992 N   0  0  0  0  0  0
   -7.0409    6.3708   14.1583 O   0  0  0  0  0  0
   -6.1556    5.4386   16.3143 O   0  0  0  0  0  0
   -5.4601    2.4346   12.1204 O   0  0  0  0  0  0
   -3.5154    5.0139   14.9892 C   0  0  0  0  0  0
   -4.3596    5.9852   12.9308 C   0  0  0  0  0  0
   -2.5059    2.4564   11.7925 C   0  0  0  0  0  0
   -1.9881    5.6103   13.2115 C   0  0  0  0  0  0
   -2.2149    5.0897   14.4861 C   0  0  0  0  0  0
   -3.0573    6.0574   12.4344 C   0  0  0  0  0  0
   -0.7158    5.6455   12.8089 F   0  0  0  0  0  0
   -4.6271    0.8510   15.1031 C   0  0  0  0  0  0
   -6.6264    2.3842   16.2894 C   0  0  0  0  0  0
   -1.1166    2.3974   11.9698 C   0  0  0  0  0  0
   -3.0126    2.7386   10.5202 C   0  0  0  0  0  0
   -5.0741    0.5368   16.3857 C   0  0  0  0  0  0
   -6.0742    1.3035   16.9794 C   0  0  0  0  0  0
   -0.2490    2.6146   10.8958 C   0  0  0  0  0  0
   -2.1422    2.9551    9.4461 C   0  0  0  0  0  0
   -0.7635    2.8941    9.6338 C   0  0  0  0  0  0
   -7.4759    3.7637   13.6613 H   0  0  0  0  0  0
   -2.8323    2.0480   13.7542 H   0  0  0  0  0  0
  1  3  1  0  0  0
  1  6  1  0  0  0
  1  8  2  0  0  0
  1  9  2  0  0  0
  2  4  1  0  0  0
  2  7  1  0  0  0
  2 10  2  0  0  0
  3  5  1  0  0  0
  3 27  1  0  0  0
  4  5  2  0  0  0
  4 18  1  0  0  0
  5 19  1  0  0  0
  6 11  2  0  0  0
  6 12  1  0  0  0
  7 13  1  0  0  0
  7 28  1  0  0  0
 11 15  1  0  0  0
 12 16  2  0  0  0
 13 20  2  0  0  0
 13 21  1  0  0  0
 14 15  2  0  0  0
 14 16  1  0  0  0
 14 17  1  0  0  0
 18 22  2  0  0  0
 19 23  2  0  0  0
 20 24  1  0  0  0
 21 25  2  0  0  0
 22 23  1  0  0  0
 24 26  2  0  0  0
 25 26  1  0  0  0
M  END
>  <$CLUSTER>
958

>  <CHROM.0>
176.96694953,171.18575171,72.41461073

>  <CHROM.1>
-4.11229412,3.71343290,13.58487802,-3.09859343,-0.74313659,-3.13260690

>  <INDEX>
411247

>  <Name>
Enamine T0505-3993

>  <RI>
-1.67511e+09

>  <Rbt.Current_Directory>
/aloy/home/acomajuncosa/PocketVec_v2/GitLab_repo

>  <Rbt.Executable>
rbdock ($Id: //depot/dev/client3/rdock/2021.1/src/exe/rbdock.cxx#4 $)

>  <Rbt.Library>
libRbt.so (2021.1, Build901 2021/07/19)

>  <Rbt.Parameter_File>
results/run_pocketvec/dock.prm

>  <Rbt.Receptor>
results/run_pocketvec/st_parameters.prm

>  <SCORE>
-21.6144

>  <SCORE.INTER>
-16.1713

>  <SCORE.INTER.CONST>
1

>  <SCORE.INTER.POLAR>
-1.56168

>  <SCORE.INTER.REPUL>
0

>  <SCORE.INTER.ROT>
5

>  <SCORE.INTER.VDW>
-21.2616

>  <SCORE.INTER.norm>
-0.621973

>  <SCORE.INTRA>
1.51879e-13

>  <SCORE.INTRA.DIHEDRAL>
4.72511e-13

>  <SCORE.INTRA.DIHEDRAL.0>
21.4962

>  <SCORE.INTRA.POLAR>
0

>  <SCORE.INTRA.POLAR.0>
0

>  <SCORE.INTRA.REPUL>
0

>  <SCORE.INTRA.REPUL.0>
0

>  <SCORE.INTRA.VDW>
-8.43769e-14

>  <SCORE.INTRA.VDW.0>
-6.79668

>  <SCORE.INTRA.norm>
5.84148e-15

>  <SCORE.RESTR>
0

>  <SCORE.RESTR.CAVITY>
0

>  <SCORE.RESTR.norm>
0

>  <SCORE.SYSTEM>
-5.44305

>  <SCORE.SYSTEM.CONST>
0

>  <SCORE.SYSTEM.DIHEDRAL>
1.19365

>  <SCORE.SYSTEM.POLAR>
-1.73359

>  <SCORE.SYSTEM.VDW>
-0.145672

>  <SCORE.SYSTEM.norm>
-0.209348

>  <SCORE.heavy>
26

>  <SCORE.norm>
-0.831321

$$$$
Chem T&I AMSACS-17229
  rDOCK(R)          3D
libRbt.so/2021.1/901 2021/07/19
 23 25  0  0  0  0  0  0  0  0999 V2000
   -5.2059    1.3314   11.2843 S   0  0  0  0  0  0
   -5.0426    1.6035   13.0178 C   0  0  0  0  0  0
   -5.1953    2.8837   13.6117 C   0  0  0  0  0  0
   -3.9754    2.3403   10.6762 N   0  0  0  0  0  0
   -5.4747    4.0415   12.9910 N   0  0  0  0  0  0
   -5.5394    5.2137   14.1631 S   0  0  0  0  0  0
   -5.0436    3.0481   15.1074 C   0  0  0  0  0  0
   -4.1575    3.7724   10.7265 C   0  0  0  0  0  0
   -5.2153    4.3137   15.5194 N   0  0  0  0  0  0
   -4.8399   -0.0438   11.0079 O   0  0  0  0  0  0
   -6.5009    1.8540   10.8995 O   0  0  0  0  0  0
   -4.7542    0.5341   13.8840 C   0  0  0  0  0  0
   -3.4046    4.5522   11.6220 C   0  0  0  0  0  0
   -4.6142    0.6996   15.2820 C   0  0  0  0  0  0
   -4.7499    1.9373   15.9345 C   0  0  0  0  0  0
   -5.1132    4.3690    9.8979 C   0  0  0  0  0  0
   -3.6253    5.9323   11.6712 C   0  0  0  0  0  0
   -5.3233    5.7453    9.9565 C   0  0  0  0  0  0
   -4.5821    6.5244   10.8418 C   0  0  0  0  0  0
   -2.4931    3.8733   12.3907 O   0  0  0  0  0  0
   -6.3444    6.3780    9.0688 C   0  0  0  0  0  0
   -1.7426    4.6327   13.3308 C   0  0  0  0  0  0
   -3.1320    1.9433   10.2869 H   0  0  0  0  0  0
  1  2  1  0  0  0
  1  4  1  0  0  0
  1 10  2  0  0  0
  1 11  2  0  0  0
  2  3  1  0  0  0
  2 12  2  0  0  0
  3  5  2  0  0  0
  3  7  1  0  0  0
  4  8  1  0  0  0
  4 23  1  0  0  0
  5  6  1  0  0  0
  6  9  1  0  0  0
  7  9  2  0  0  0
  7 15  1  0  0  0
  8 13  2  0  0  0
  8 16  1  0  0  0
 12 14  1  0  0  0
 13 17  1  0  0  0
 13 20  1  0  0  0
 14 15  2  0  0  0
 16 18  2  0  0  0
 17 19  2  0  0  0
 18 19  1  0  0  0
 18 21  1  0  0  0
 20 22  1  0  0  0
M  END
>  <$CLUSTER>
797

>  <CHROM.0>
176.70767096,171.86989672,77.68874091

>  <CHROM.1>
-4.74521192,3.39275118,12.40042148,1.55174691,1.42747915,2.40624490

>  <INDEX>
520507

>  <Name>
Chem T&I AMSACS-17229

>  <RI>
-1.67511e+09

>  <Rbt.Current_Directory>
/aloy/home/acomajuncosa/PocketVec_v2/GitLab_repo

>  <Rbt.Executable>
rbdock ($Id: //depot/dev/client3/rdock/2021.1/src/exe/rbdock.cxx#4 $)

>  <Rbt.Library>
libRbt.so (2021.1, Build901 2021/07/19)

>  <Rbt.Parameter_File>
results/run_pocketvec/dock.prm

>  <Rbt.Receptor>
results/run_pocketvec/st_parameters.prm

>  <SCORE>
-17.2611

>  <SCORE.INTER>
-11.8502

>  <SCORE.INTER.CONST>
1

>  <SCORE.INTER.POLAR>
-0.789802

>  <SCORE.INTER.REPUL>
0.0853913

>  <SCORE.INTER.ROT>
4

>  <SCORE.INTER.VDW>
-18.9918

>  <SCORE.INTER.norm>
-0.538643

>  <SCORE.INTRA>
-1.94467e-12

>  <SCORE.INTRA.DIHEDRAL>
8.88178e-14

>  <SCORE.INTRA.DIHEDRAL.0>
13.7616

>  <SCORE.INTRA.POLAR>
0

>  <SCORE.INTRA.POLAR.0>
0

>  <SCORE.INTRA.REPUL>
0

>  <SCORE.INTRA.REPUL.0>
0

>  <SCORE.INTRA.VDW>
-1.98908e-12

>  <SCORE.INTRA.VDW.0>
-1.5123

>  <SCORE.INTRA.norm>
-8.83939e-14

>  <SCORE.RESTR>
0

>  <SCORE.RESTR.CAVITY>
0

>  <SCORE.RESTR.norm>
0

>  <SCORE.SYSTEM>
-5.41096

>  <SCORE.SYSTEM.CONST>
0

>  <SCORE.SYSTEM.DIHEDRAL>
1.83975

>  <SCORE.SYSTEM.POLAR>
-1.7763

>  <SCORE.SYSTEM.VDW>
-0.291427

>  <SCORE.SYSTEM.norm>
-0.245953

>  <SCORE.heavy>
22

>  <SCORE.norm>
-0.784596

$$$$
Chemical Block A3692/0156694
  rDOCK(R)          3D
libRbt.so/2021.1/901 2021/07/19
 27 29  0  0  0  0  0  0  0  0999 V2000
   -5.6649    2.4945   14.8481 C   0  0  0  0  0  0
   -5.4917    1.4282   15.6407 N   0  0  0  0  0  0
   -5.1971    2.6481   13.5992 N   0  0  0  0  0  0
   -4.2416    0.4700   13.8351 N   0  0  0  0  0  0
   -4.7699    0.4549   15.0697 C   0  0  0  0  0  0
    3.2007    4.7924   11.4482 N   0  0  0  0  0  0
   -4.4928    1.5955   13.1394 C   0  0  0  0  0  0
    4.9931    5.6805   12.3883 N   0  0  0  0  0  0
    5.2039    5.6293   11.0348 N   0  0  0  0  0  0
   -1.9511    2.4462   10.6691 C   0  0  0  0  0  0
    4.1337    5.1004   10.4869 C   0  0  0  0  0  0
    3.8007    5.1812   12.6228 C   0  0  0  0  0  0
   -6.4086    3.5811   15.3481 N   0  0  0  0  0  0
    1.9078    4.2051   11.2689 C   0  0  0  0  0  0
   -0.6092    3.0628   10.9260 C   0  0  0  0  0  0
   -2.6215    2.2776   11.8511 O   0  0  0  0  0  0
   -2.3667    2.1461    9.5588 O   0  0  0  0  0  0
    1.0911    3.9638   12.3718 C   0  0  0  0  0  0
    1.4643    3.8750    9.9908 C   0  0  0  0  0  0
   -0.1724    3.3899   12.1996 C   0  0  0  0  0  0
    0.2044    3.3017    9.8120 C   0  0  0  0  0  0
   -4.5947   -0.6253   15.8776 N   0  0  0  0  0  0
   -3.9146    1.7001   11.7621 C   0  0  0  0  0  0
   -6.9203    3.5682   16.7207 C   0  0  0  0  0  0
   -6.7294    4.7621   14.5511 C   0  0  0  0  0  0
   -4.0652   -1.4209   15.5496 H   0  0  0  0  0  0
   -4.9940   -0.6316   16.8053 H   0  0  0  0  0  0
  1  2  2  0  0  0
  1  3  1  0  0  0
  1 13  1  0  0  0
  2  5  1  0  0  0
  3  7  2  0  0  0
  4  5  2  0  0  0
  4  7  1  0  0  0
  5 22  1  0  0  0
  6 11  1  0  0  0
  6 12  1  0  0  0
  6 14  1  0  0  0
  7 23  1  0  0  0
  8  9  1  0  0  0
  8 12  2  0  0  0
  9 11  2  0  0  0
 10 15  1  0  0  0
 10 16  1  0  0  0
 10 17  2  0  0  0
 13 24  1  0  0  0
 13 25  1  0  0  0
 14 18  2  0  0  0
 14 19  1  0  0  0
 15 20  2  0  0  0
 15 21  1  0  0  0
 16 23  1  0  0  0
 18 20  1  0  0  0
 19 21  2  0  0  0
 22 26  1  0  0  0
 22 27  1  0  0  0
M  END
>  <$CLUSTER>
187

>  <CHROM.0>
170.98126395,171.45054839,79.05269091

>  <CHROM.1>
-1.68890964,3.06368139,12.72213507,-2.93580533,-0.42941482,-2.04313363

>  <INDEX>
118465

>  <Name>
Chemical Block A3692/0156694

>  <RI>
-1.67511e+09

>  <Rbt.Current_Directory>
/aloy/home/acomajuncosa/PocketVec_v2/GitLab_repo

>  <Rbt.Executable>
rbdock ($Id: //depot/dev/client3/rdock/2021.1/src/exe/rbdock.cxx#4 $)

>  <Rbt.Library>
libRbt.so (2021.1, Build901 2021/07/19)

>  <Rbt.Parameter_File>
results/run_pocketvec/dock.prm

>  <Rbt.Receptor>
results/run_pocketvec/st_parameters.prm

>  <SCORE>
-10.6851

>  <SCORE.INTER>
-5.30405

>  <SCORE.INTER.CONST>
1

>  <SCORE.INTER.POLAR>
-0.12952

>  <SCORE.INTER.REPUL>
0.00914707

>  <SCORE.INTER.ROT>
6

>  <SCORE.INTER.VDW>
-16.3094

>  <SCORE.INTER.norm>
-0.212162

>  <SCORE.INTRA>
-3.30125e-13

>  <SCORE.INTRA.DIHEDRAL>
4.50862e-13

>  <SCORE.INTRA.DIHEDRAL.0>
0.79327

>  <SCORE.INTRA.POLAR>
0

>  <SCORE.INTRA.POLAR.0>
0

>  <SCORE.INTRA.REPUL>
0

>  <SCORE.INTRA.REPUL.0>
0

>  <SCORE.INTRA.VDW>
-5.55556e-13

>  <SCORE.INTRA.VDW.0>
1.98097

>  <SCORE.INTRA.norm>
-1.3205e-14

>  <SCORE.RESTR>
0

>  <SCORE.RESTR.CAVITY>
0

>  <SCORE.RESTR.norm>
0

>  <SCORE.SYSTEM>
-5.3811

>  <SCORE.SYSTEM.CONST>
0

>  <SCORE.SYSTEM.DIHEDRAL>
2.19395

>  <SCORE.SYSTEM.POLAR>
-1.78686

>  <SCORE.SYSTEM.VDW>
-0.402752

>  <SCORE.SYSTEM.norm>
-0.215244

>  <SCORE.heavy>
25

>  <SCORE.norm>
-0.427406

$$$$
Life Chemicals F0778-0231
  rDOCK(R)          3D
libRbt.so/2021.1/901 2021/07/19
 31 34  0  0  0  0  0  0  0  0999 V2000
   -2.0569    5.5312   13.4706 C   0  0  0  0  0  0
   -3.0760    4.5647   13.5903 N   0  0  0  0  0  0
   -3.9365    4.8693   14.6095 N   0  0  0  0  0  0
   -2.4536    6.5707   14.2854 C   0  0  0  0  0  0
   -0.9182    5.3151   12.7109 N   0  0  0  0  0  0
   -3.5891    6.0995   14.9528 C   0  0  0  0  0  0
   -4.1320   -0.0927   10.5626 N   0  3  0  0  0  0
    0.0466    6.2720   12.4407 C   0  0  0  0  0  0
    1.1808    5.6880   11.6349 C   0  0  0  0  0  0
   -3.3221    3.3903   12.8203 C   0  0  0  0  0  0
   -3.8842    1.0758   11.3367 C   0  0  0  0  0  0
    2.4329    6.3734   11.7375 C   0  0  0  0  0  0
    3.5360    5.9132   11.0152 C   0  0  0  0  0  0
   -3.1595    8.4640   15.9989 S   0  0  0  0  0  0
   -3.6956   -0.1939    9.4024 O   0  5  0  0  0  0
   -4.8013   -0.9746   11.1252 O   0  0  0  0  0  0
    0.0441    7.4587   12.7485 O   0  0  0  0  0  0
    3.4107    4.8018   10.1844 C   0  0  0  0  0  0
   -1.9655    7.9029   14.6868 C   0  0  0  0  0  0
    1.0759    4.6073   10.7938 C   0  0  0  0  0  0
   -4.0964    2.3581   13.3747 C   0  0  0  0  0  0
   -2.8636    3.2654   11.5040 C   0  0  0  0  0  0
   -3.1394    2.1085   10.7699 C   0  0  0  0  0  0
   -4.3660    1.2041   12.6366 C   0  0  0  0  0  0
    2.1827    4.1518   10.0719 C   0  0  0  0  0  0
   -4.2233    6.9458   15.9739 C   0  0  0  0  0  0
    4.7786    6.5008   11.0676 O   0  0  0  0  0  0
    4.5515    4.4299    9.5051 O   0  0  0  0  0  0
    4.9366    7.6352   11.9114 C   0  0  0  0  0  0
    4.4636    3.3024    8.6430 C   0  0  0  0  0  0
   -0.7812    4.3920   12.3255 H   0  0  0  0  0  0
  1  2  1  0  0  0
  1  4  2  0  0  0
  1  5  1  0  0  0
  2  3  1  0  0  0
  2 10  1  0  0  0
  3  6  2  0  0  0
  4  6  1  0  0  0
  4 19  1  0  0  0
  5  8  1  0  0  0
  5 31  1  0  0  0
  6 26  1  0  0  0
  7 11  1  0  0  0
  7 15  1  0  0  0
  7 16  2  0  0  0
  8  9  1  0  0  0
  8 17  2  0  0  0
  9 12  1  0  0  0
  9 20  2  0  0  0
 10 21  1  0  0  0
 10 22  2  0  0  0
 11 23  2  0  0  0
 11 24  1  0  0  0
 12 13  2  0  0  0
 13 18  1  0  0  0
 13 27  1  0  0  0
 14 19  1  0  0  0
 14 26  1  0  0  0
 18 25  2  0  0  0
 18 28  1  0  0  0
 20 25  1  0  0  0
 21 24  2  0  0  0
 22 23  1  0  0  0
 27 29  1  0  0  0
 28 30  1  0  0  0
M  END
>  <$CLUSTER>
440

>  <CHROM.0>
175.42946799,172.01036897,75.35103149

>  <CHROM.1>
-0.94353709,4.66007094,12.30393644,2.99840765,-0.40893743,-2.53211851

>  <INDEX>
289437

>  <Name>
Life Chemicals F0778-0231

>  <RI>
-1.67511e+09

>  <Rbt.Current_Directory>
/aloy/home/acomajuncosa/PocketVec_v2/GitLab_repo

>  <Rbt.Executable>
rbdock ($Id: //depot/dev/client3/rdock/2021.1/src/exe/rbdock.cxx#4 $)

>  <Rbt.Library>
libRbt.so (2021.1, Build901 2021/07/19)

>  <Rbt.Parameter_File>
results/run_pocketvec/dock.prm

>  <Rbt.Receptor>
results/run_pocketvec/st_parameters.prm

>  <SCORE>
-11.2188

>  <SCORE.INTER>
-5.77916

>  <SCORE.INTER.CONST>
1

>  <SCORE.INTER.POLAR>
0

>  <SCORE.INTER.REPUL>
0

>  <SCORE.INTER.ROT>
5

>  <SCORE.INTER.VDW>
-16.1792

>  <SCORE.INTER.norm>
-0.192639

>  <SCORE.INTRA>
-5.35972e-12

>  <SCORE.INTRA.DIHEDRAL>
-7.19425e-13

>  <SCORE.INTRA.DIHEDRAL.0>
5.78196

>  <SCORE.INTRA.POLAR>
0

>  <SCORE.INTRA.POLAR.0>
0

>  <SCORE.INTRA.REPUL>
1.87385e-14

>  <SCORE.INTRA.REPUL.0>
0.0197536

>  <SCORE.INTRA.VDW>
-5.0937e-12

>  <SCORE.INTRA.VDW.0>
3.88109

>  <SCORE.INTRA.norm>
-1.78657e-13

>  <SCORE.RESTR>
0

>  <SCORE.RESTR.CAVITY>
0

>  <SCORE.RESTR.norm>
0

>  <SCORE.SYSTEM>
-5.43959

>  <SCORE.SYSTEM.CONST>
0

>  <SCORE.SYSTEM.DIHEDRAL>
1.51302

>  <SCORE.SYSTEM.POLAR>
-1.75771

>  <SCORE.SYSTEM.VDW>
-0.219883

>  <SCORE.SYSTEM.norm>
-0.18132

>  <SCORE.heavy>
30

>  <SCORE.norm>
-0.373959

$$$$
Princeton Biomolecular OSSK_459353
  rDOCK(R)          3D
libRbt.so/2021.1/901 2021/07/19
 26 28  0  0  0  0  0  0  0  0999 V2000
   -4.9354    1.6079   12.8169 C   0  0  0  0  0  0
   -4.7111    0.4113   12.2633 C   0  0  0  0  0  0
   -5.1996    1.6988   14.2731 C   0  0  0  0  0  0
   -4.7086   -0.8453   13.0147 C   0  0  0  0  0  0
   -5.1980    0.4953   14.9961 C   0  0  0  0  0  0
   -4.9567   -0.7477   14.3749 O   0  0  0  0  0  0
   -5.4537    2.8844   15.0017 C   0  0  0  0  0  0
   -4.4747    0.1812   10.7168 C   0  0  0  0  0  0
   -2.9924    0.1428   10.3728 C   0  0  0  0  0  0
   -5.4589    4.0676   14.3084 O   0  0  0  0  0  0
   -5.4310    0.4313   16.3706 C   0  0  0  0  0  0
   -5.6894    2.8211   16.3892 C   0  0  0  0  0  0
   -4.4985   -1.9206   12.4655 O   0  0  0  0  0  0
   -5.6779    1.6027   17.0665 C   0  0  0  0  0  0
   -2.1433    0.2865   11.2785 O   0  0  0  0  0  0
   -4.9122    2.8274   11.9406 C   0  0  0  0  0  0
   -5.7113    5.2790   15.0161 C   0  0  0  0  0  0
   -6.8145    6.8175   13.3391 C   0  0  0  0  0  0
   -6.7635    7.8613   12.4131 C   0  0  0  0  0  0
   -2.7999   -0.0438    9.1167 O   0  5  0  0  0  0
   -5.6580    6.4199   14.0165 C   0  0  0  0  0  0
   -7.9110    8.1791   11.8132 F   0  0  0  0  0  0
   -4.3985    8.1141   12.8270 C   0  0  0  0  0  0
   -5.9307    1.5600   18.5382 C   0  0  0  0  0  0
   -5.5557    8.5099   12.1582 C   0  0  0  0  0  0
   -4.4482    7.0705   13.7532 C   0  0  0  0  0  0
  1  2  2  0  0  0
  1  3  1  0  0  0
  1 16  1  0  0  0
  2  4  1  0  0  0
  2  8  1  0  0  0
  3  5  2  0  0  0
  3  7  1  0  0  0
  4  6  1  0  0  0
  4 13  2  0  0  0
  5  6  1  0  0  0
  5 11  1  0  0  0
  7 10  1  0  0  0
  7 12  2  0  0  0
  8  9  1  0  0  0
  9 15  2  0  0  0
  9 20  1  0  0  0
 10 17  1  0  0  0
 11 14  2  0  0  0
 12 14  1  0  0  0
 14 24  1  0  0  0
 17 21  1  0  0  0
 18 19  2  0  0  0
 18 21  1  0  0  0
 19 22  1  0  0  0
 19 25  1  0  0  0
 21 26  2  0  0  0
 23 25  2  0  0  0
 23 26  1  0  0  0
M  END
>  <$CLUSTER>
897

>  <CHROM.0>
175.05361133,172.99129071,72.68279019

>  <CHROM.1>
-5.09659984,2.90249753,13.42112786,-0.80949490,1.20851339,-0.67423909

>  <INDEX>
584174

>  <Name>
Princeton Biomolecular OSSK_459353

>  <RI>
-1.67511e+09

>  <Rbt.Current_Directory>
/aloy/home/acomajuncosa/PocketVec_v2/GitLab_repo

>  <Rbt.Executable>
rbdock ($Id: //depot/dev/client3/rdock/2021.1/src/exe/rbdock.cxx#4 $)

>  <Rbt.Library>
libRbt.so (2021.1, Build901 2021/07/19)

>  <Rbt.Parameter_File>
results/run_pocketvec/dock.prm

>  <Rbt.Receptor>
results/run_pocketvec/st_parameters.prm

>  <SCORE>
-7.84013

>  <SCORE.INTER>
-2.39746

>  <SCORE.INTER.CONST>
1

>  <SCORE.INTER.POLAR>
-0.0606123

>  <SCORE.INTER.REPUL>
0.292014

>  <SCORE.INTER.ROT>
5

>  <SCORE.INTER.VDW>
-14.0514

>  <SCORE.INTER.norm>
-0.0922099

>  <SCORE.INTRA>
6.50258e-13

>  <SCORE.INTRA.DIHEDRAL>
-2.15827e-13

>  <SCORE.INTRA.DIHEDRAL.0>
2.74998

>  <SCORE.INTRA.POLAR>
0

>  <SCORE.INTRA.POLAR.0>
0

>  <SCORE.INTRA.REPUL>
0

>  <SCORE.INTRA.REPUL.0>
0

>  <SCORE.INTRA.VDW>
7.58171e-13

>  <SCORE.INTRA.VDW.0>
-0.539126

>  <SCORE.INTRA.norm>
2.50099e-14

>  <SCORE.RESTR>
0

>  <SCORE.RESTR.CAVITY>
0

>  <SCORE.RESTR.norm>
0

>  <SCORE.SYSTEM>
-5.44267

>  <SCORE.SYSTEM.CONST>
0

>  <SCORE.SYSTEM.DIHEDRAL>
1.11477

>  <SCORE.SYSTEM.POLAR>
-1.73582

>  <SCORE.SYSTEM.VDW>
-0.0982588

>  <SCORE.SYSTEM.norm>
-0.209334

>  <SCORE.heavy>
26

>  <SCORE.norm>
-0.301543

$$$$
Toslab 44086
  rDOCK(R)          3D
libRbt.so/2021.1/901 2021/07/19
 24 26  0  0  0  0  0  0  0  0999 V2000
   -4.5130    2.4082   15.7259 C   0  0  0  0  0  0
   -5.2270    1.9907   16.8326 N   0  0  0  0  0  0
   -3.2793    1.9516   15.8456 N   0  0  0  0  0  0
   -4.4055    1.2641   17.6222 N   0  0  0  0  0  0
   -3.2316    1.2505   17.0161 N   0  0  0  0  0  0
   -5.0018    3.2269   14.5821 C   0  0  0  0  0  0
   -4.5703    2.6439   13.2720 N   0  3  0  0  0  0
   -6.6284    2.1979   17.2300 C   0  0  0  0  0  0
   -4.4567    4.6507   14.6505 C   0  0  0  0  0  0
   -5.3534    5.7576   14.4223 C   0  0  0  0  0  0
   -3.1144    4.9879   14.8865 C   0  0  0  0  0  0
   -2.6716    6.3105   14.9264 C   0  0  0  0  0  0
   -4.9078    7.0790   14.4630 C   0  0  0  0  0  0
   -3.5656    7.3551   14.7164 C   0  0  0  0  0  0
   -3.1137    2.3161   13.0568 C   0  0  0  0  0  0
   -5.4295    1.4358   12.8535 C   0  0  0  0  0  0
   -7.5656    1.4375   16.2740 C   0  0  0  0  0  0
   -6.9853    3.6972   17.2602 C   0  0  0  0  0  0
   -6.8978    1.6536   18.6588 C   0  0  0  0  0  0
   -3.0926    8.7707   14.7638 C   0  0  0  0  0  0
   -5.1234    0.9736   11.4519 C   0  0  0  0  0  0
   -2.7869    1.8818   11.6939 C   0  0  0  0  0  0
   -3.6356    0.6866   11.2742 C   0  0  0  0  0  0
   -4.7263    3.4413   12.6721 H   0  0  0  0  0  0
  1  2  1  0  0  0
  1  3  2  0  0  0
  1  6  1  0  0  0
  2  4  1  0  0  0
  2  8  1  0  0  0
  3  5  1  0  0  0
  4  5  2  0  0  0
  6  7  1  0  0  0
  6  9  1  0  0  0
  7 15  1  0  0  0
  7 16  1  0  0  0
  7 24  1  0  0  0
  8 17  1  0  0  0
  8 18  1  0  0  0
  8 19  1  0  0  0
  9 10  1  0  0  0
  9 11  2  0  0  0
 10 13  2  0  0  0
 11 12  1  0  0  0
 12 14  2  0  0  0
 13 14  1  0  0  0
 14 20  1  0  0  0
 15 22  1  0  0  0
 16 21  1  0  0  0
 21 23  1  0  0  0
 22 23  1  0  0  0
M  END
>  <$CLUSTER>
221

>  <CHROM.0>
1.89586611,171.70734887,64.21977933

>  <CHROM.1>
-4.61074364,3.25301328,14.93723313,2.41485629,-1.10278122,-2.67507112

>  <INDEX>
479862

>  <Name>
Toslab 44086

>  <RI>
-1.67511e+09

>  <Rbt.Current_Directory>
/aloy/home/acomajuncosa/PocketVec_v2/GitLab_repo

>  <Rbt.Executable>
rbdock ($Id: //depot/dev/client3/rdock/2021.1/src/exe/rbdock.cxx#4 $)

>  <Rbt.Library>
libRbt.so (2021.1, Build901 2021/07/19)

>  <Rbt.Parameter_File>
results/run_pocketvec/dock.prm

>  <Rbt.Receptor>
results/run_pocketvec/st_parameters.prm

>  <SCORE>
-6.84176

>  <SCORE.INTER>
-1.62133

>  <SCORE.INTER.CONST>
1

>  <SCORE.INTER.POLAR>
-1.68243

>  <SCORE.INTER.REPUL>
0.586309

>  <SCORE.INTER.ROT>
4

>  <SCORE.INTER.VDW>
-8.23261

>  <SCORE.INTER.norm>
-0.0704924

>  <SCORE.INTRA>
1.67932e-12

>  <SCORE.INTRA.DIHEDRAL>
4.88498e-14

>  <SCORE.INTRA.DIHEDRAL.0>
4.70511

>  <SCORE.INTRA.POLAR>
0

>  <SCORE.INTRA.POLAR.0>
0

>  <SCORE.INTRA.REPUL>
0

>  <SCORE.INTRA.REPUL.0>
0

>  <SCORE.INTRA.VDW>
1.6549e-12

>  <SCORE.INTRA.VDW.0>
-1.10668

>  <SCORE.INTRA.norm>
7.30141e-14

>  <SCORE.RESTR>
0

>  <SCORE.RESTR.CAVITY>
0

>  <SCORE.RESTR.norm>
0

>  <SCORE.SYSTEM>
-5.22043

>  <SCORE.SYSTEM.CONST>
0

>  <SCORE.SYSTEM.DIHEDRAL>
0.492644

>  <SCORE.SYSTEM.POLAR>
-1.66286

>  <SCORE.SYSTEM.VDW>
0.186973

>  <SCORE.SYSTEM.norm>
-0.226975

>  <SCORE.heavy>
23

>  <SCORE.norm>
-0.297468

$$$$
Specs AM-900/15051004
  rDOCK(R)          3D
libRbt.so/2021.1/901 2021/07/19
 29 32  0  0  0  0  0  0  0  0999 V2000
   -2.0155    5.0571    9.8680 C   0  0  0  0  0  0
   -2.6861    6.2350    9.9411 N   0  0  0  0  0  0
   -2.2503    4.0420   10.7386 N   0  0  0  0  0  0
   -3.6091    6.3749   10.9175 C   0  0  0  0  0  0
   -1.1067    4.8936    8.9208 N   0  0  0  0  0  0
   -3.9036    5.3973   11.8346 C   0  0  0  0  0  0
   -3.1839    4.2359   11.6955 C   0  0  0  0  0  0
   -4.3088    7.6410   10.9730 N   0  0  0  0  0  0
   -4.3041    3.2161   13.5865 N   0  0  0  0  0  0
   -3.3973    3.1333   12.5940 N   0  0  0  0  0  0
   -4.3808    2.1481   14.3076 C   0  0  0  0  0  0
   -5.3588    0.8779   16.1833 C   0  0  0  0  0  0
   -5.3397    2.0725   15.4543 C   0  0  0  0  0  0
   -6.2348    0.7559   17.2630 C   0  0  0  0  0  0
   -0.3184    3.6741    8.7375 C   0  0  0  0  0  0
   -0.7621    5.9093    7.9252 C   0  0  0  0  0  0
   -3.9853    8.6671    9.9933 C   0  0  0  0  0  0
   -5.3229    7.9101   11.9789 C   0  0  0  0  0  0
   -7.0439    2.9981   16.8660 C   0  0  0  0  0  0
   -6.1701    3.1275   15.7850 C   0  0  0  0  0  0
   -7.0764    1.8145   17.6033 C   0  0  0  0  0  0
   -6.2756   -0.5079   18.0573 C   0  0  0  0  0  0
   -5.2897    9.0728    9.2712 C   0  0  0  0  0  0
   -6.6257    8.3171   11.2544 C   0  0  0  0  0  0
   -0.9841    5.3970    6.5033 C   0  0  0  0  0  0
   -0.5237    3.0795    7.3446 C   0  0  0  0  0  0
   -0.2162    4.1016    6.2557 C   0  0  0  0  0  0
   -6.4223    9.4284   10.2298 C   0  0  0  0  0  0
   -2.8600    2.2854   12.4788 H   0  0  0  0  0  0
  1  2  2  0  0  0
  1  3  1  0  0  0
  1  5  1  0  0  0
  2  4  1  0  0  0
  3  7  2  0  0  0
  4  6  2  0  0  0
  4  8  1  0  0  0
  5 15  1  0  0  0
  5 16  1  0  0  0
  6  7  1  0  0  0
  7 10  1  0  0  0
  8 17  1  0  0  0
  8 18  1  0  0  0
  9 10  1  0  0  0
  9 11  2  0  0  0
 10 29  1  0  0  0
 11 13  1  0  0  0
 12 13  2  0  0  0
 12 14  1  0  0  0
 13 20  1  0  0  0
 14 21  2  0  0  0
 14 22  1  0  0  0
 15 26  1  0  0  0
 16 25  1  0  0  0
 17 23  1  0  0  0
 18 24  1  0  0  0
 19 20  2  0  0  0
 19 21  1  0  0  0
 23 28  1  0  0  0
 24 28  1  0  0  0
 25 27  1  0  0  0
 26 27  1  0  0  0
M  END
>  <$CLUSTER>
508

>  <CHROM.0>
174.30521403,171.90098533,73.86006070

>  <CHROM.1>
-3.86722240,4.64405649,11.79005157,-0.97871961,-0.78507548,2.50864245

>  <INDEX>
505362

>  <Name>
Specs AM-900/15051004

>  <RI>
-1.67511e+09

>  <Rbt.Current_Directory>
/aloy/home/acomajuncosa/PocketVec_v2/GitLab_repo

>  <Rbt.Executable>
rbdock ($Id: //depot/dev/client3/rdock/2021.1/src/exe/rbdock.cxx#4 $)

>  <Rbt.Library>
libRbt.so (2021.1, Build901 2021/07/19)

>  <Rbt.Parameter_File>
results/run_pocketvec/dock.prm

>  <Rbt.Receptor>
results/run_pocketvec/st_parameters.prm

>  <SCORE>
-11.9838

>  <SCORE.INTER>
-6.52805

>  <SCORE.INTER.CONST>
1

>  <SCORE.INTER.POLAR>
0

>  <SCORE.INTER.REPUL>
0

>  <SCORE.INTER.ROT>
5

>  <SCORE.INTER.VDW>
-16.928

>  <SCORE.INTER.norm>
-0.233145

>  <SCORE.INTRA>
-3.62403e-12

>  <SCORE.INTRA.DIHEDRAL>
-4.08562e-15

>  <SCORE.INTRA.DIHEDRAL.0>
2.13453e-05

>  <SCORE.INTRA.POLAR>
0

>  <SCORE.INTRA.POLAR.0>
0

>  <SCORE.INTRA.REPUL>
0

>  <SCORE.INTRA.REPUL.0>
0

>  <SCORE.INTRA.VDW>
-3.62199e-12

>  <SCORE.INTRA.VDW.0>
1.3002

>  <SCORE.INTRA.norm>
-1.2943e-13

>  <SCORE.RESTR>
0

>  <SCORE.RESTR.CAVITY>
0

>  <SCORE.RESTR.norm>
0

>  <SCORE.SYSTEM>
-5.45575

>  <SCORE.SYSTEM.CONST>
0

>  <SCORE.SYSTEM.DIHEDRAL>
1.34683

>  <SCORE.SYSTEM.POLAR>
-1.74556

>  <SCORE.SYSTEM.VDW>
-0.194244

>  <SCORE.SYSTEM.norm>
-0.194848

>  <SCORE.heavy>
28

>  <SCORE.norm>
-0.427993

$$$$
Life Chemicals F2584-0097
  rDOCK(R)          3D
libRbt.so/2021.1/901 2021/07/19
 27 30  0  0  0  0  0  0  0  0999 V2000
   -4.6594    2.9251   15.2604 S   0  0  0  0  0  0
   -0.8747    6.9469   13.2321 N   0  0  0  0  0  0
    0.1820    6.2088   12.6977 C   0  0  0  0  0  0
   -1.8623    6.1107   13.7396 C   0  0  0  0  0  0
   -5.6374    2.5861   13.9452 N   0  0  0  0  0  0
   -1.5072    4.7828   13.5689 C   0  0  0  0  0  0
   -3.5541    4.1778   14.6343 C   0  0  0  0  0  0
   -5.0817    1.8989   12.7873 C   0  0  0  0  0  0
   -3.0392    6.5356   14.3266 C   0  0  0  0  0  0
   -0.1765    4.7196   12.8857 C   0  0  0  0  0  0
   -2.3543    3.7901   14.0159 C   0  0  0  0  0  0
   -3.8941    5.5387   14.7942 C   0  0  0  0  0  0
   -5.4971    3.5067   16.2936 O   0  0  0  0  0  0
   -3.8777    1.7326   15.5438 O   0  0  0  0  0  0
   -4.8144    2.5755   11.5844 C   0  0  0  0  0  0
    1.2068    6.6237   12.1795 O   0  0  0  0  0  0
   -4.7762    0.5403   12.9199 C   0  0  0  0  0  0
   -4.2381    1.8687   10.5225 C   0  0  0  0  0  0
   -1.0266    8.3883   13.3314 C   0  0  0  0  0  0
   -4.2021   -0.1507   11.8556 C   0  0  0  0  0  0
   -3.9337    0.5123   10.6610 C   0  0  0  0  0  0
   -3.2905    8.0092   14.4594 C   0  0  0  0  0  0
   -5.1500    3.9047   11.5544 O   0  0  0  0  0  0
   -2.5050    8.8007   13.3941 C   0  0  0  0  0  0
   -3.8777   -1.6025   11.9973 C   0  0  0  0  0  0
   -4.8573    4.6222   10.3616 C   0  0  0  0  0  0
   -6.6101    2.8573   13.9543 H   0  0  0  0  0  0
  1  5  1  0  0  0
  1  7  1  0  0  0
  1 13  2  0  0  0
  1 14  2  0  0  0
  2  3  1  0  0  0
  2  4  1  0  0  0
  2 19  1  0  0  0
  3 10  1  0  0  0
  3 16  2  0  0  0
  4  6  1  0  0  0
  4  9  2  0  0  0
  5  8  1  0  0  0
  5 27  1  0  0  0
  6 10  1  0  0  0
  6 11  2  0  0  0
  7 11  1  0  0  0
  7 12  2  0  0  0
  8 15  2  0  0  0
  8 17  1  0  0  0
  9 12  1  0  0  0
  9 22  1  0  0  0
 15 18  1  0  0  0
 15 23  1  0  0  0
 17 20  2  0  0  0
 18 21  2  0  0  0
 19 24  1  0  0  0
 20 21  1  0  0  0
 20 25  1  0  0  0
 22 24  1  0  0  0
 23 26  1  0  0  0
M  END
>  <$CLUSTER>
470

>  <CHROM.0>
-0.47986466,171.49588909,73.83178365

>  <CHROM.1>
-3.29332586,4.00878164,13.29142841,2.32600251,-0.79026527,-2.44084532

>  <INDEX>
309165

>  <Name>
Life Chemicals F2584-0097

>  <RI>
-1.67511e+09

>  <Rbt.Current_Directory>
/aloy/home/acomajuncosa/PocketVec_v2/GitLab_repo

>  <Rbt.Executable>
rbdock ($Id: //depot/dev/client3/rdock/2021.1/src/exe/rbdock.cxx#4 $)

>  <Rbt.Library>
libRbt.so (2021.1, Build901 2021/07/19)

>  <Rbt.Parameter_File>
results/run_pocketvec/dock.prm

>  <Rbt.Receptor>
results/run_pocketvec/st_parameters.prm

>  <SCORE>
-11.0834

>  <SCORE.INTER>
-5.47469

>  <SCORE.INTER.CONST>
1

>  <SCORE.INTER.POLAR>
-0.0985453

>  <SCORE.INTER.REPUL>
0.10314

>  <SCORE.INTER.ROT>
4

>  <SCORE.INTER.VDW>
-15.0553

>  <SCORE.INTER.norm>
-0.210565

>  <SCORE.INTRA>
1.00875e-12

>  <SCORE.INTRA.DIHEDRAL>
6.96332e-13

>  <SCORE.INTRA.DIHEDRAL.0>
14.1465

>  <SCORE.INTRA.POLAR>
0

>  <SCORE.INTRA.POLAR.0>
0

>  <SCORE.INTRA.REPUL>
0

>  <SCORE.INTRA.REPUL.0>
0

>  <SCORE.INTRA.VDW>
6.60583e-13

>  <SCORE.INTRA.VDW.0>
-1.18511

>  <SCORE.INTRA.norm>
3.8798e-14

>  <SCORE.RESTR>
0

>  <SCORE.RESTR.CAVITY>
0

>  <SCORE.RESTR.norm>
0

>  <SCORE.SYSTEM>
-5.60875

>  <SCORE.SYSTEM.CONST>
0

>  <SCORE.SYSTEM.DIHEDRAL>
1.31911

>  <SCORE.SYSTEM.POLAR>
-1.74533

>  <SCORE.SYSTEM.VDW>
-0.334178

>  <SCORE.SYSTEM.norm>
-0.215721

>  <SCORE.heavy>
26

>  <SCORE.norm>
-0.426286

$$$$
Asinex ASN 06235439
  rDOCK(R)          3D
libRbt.so/2021.1/901 2021/07/19
 30 32  0  0  0  0  0  0  0  0999 V2000
    0.1376   10.5857   14.9415 C   0  0  0  0  0  0
   -1.0938   10.0080   14.9981 N   0  0  0  0  0  0
   -4.4822    5.8609   14.5175 C   0  0  0  0  0  0
    0.8965   10.4815   16.0884 N   0  0  0  0  0  0
   -3.4542    6.6053   13.9836 N   0  0  0  0  0  0
    2.1708   10.9232   16.4357 C   0  0  0  0  0  0
   -4.6362    4.5341   13.8250 C   0  0  0  0  0  0
    0.5740   11.1860   13.9569 O   0  0  0  0  0  0
   -2.0720   10.1539   13.9130 C   0  0  0  0  0  0
   -1.6408    9.2035   16.0980 C   0  0  0  0  0  0
   -5.1994    6.1933   15.4575 O   0  0  0  0  0  0
   -3.0923    7.9314   14.4893 C   0  0  0  0  0  0
   -2.5237    8.8005   13.3670 C   0  0  0  0  0  0
   -2.0781    7.8173   15.6282 C   0  0  0  0  0  0
    4.2514   12.0702   15.9487 C   0  0  0  0  0  0
    3.9312   11.0577   18.1108 C   0  0  0  0  0  0
    2.6601   10.6350   17.7179 C   0  0  0  0  0  0
    2.9789   11.6450   15.5526 C   0  0  0  0  0  0
   -5.2602    3.5047   14.5930 C   0  0  0  0  0  0
   -4.2949    4.2946   12.5209 C   0  0  0  0  0  0
    4.7279   11.7762   17.2238 C   0  0  0  0  0  0
   -5.0925    2.0158   12.6970 C   0  0  0  0  0  0
   -4.5087    3.0369   11.9488 C   0  0  0  0  0  0
   -5.4696    2.2509   14.0177 C   0  0  0  0  0  0
   -5.3648    0.7439   12.2448 O   0  0  0  0  0  0
    5.1073   12.8429   14.9948 C   0  0  0  0  0  0
    4.4319   10.7371   19.4803 C   0  0  0  0  0  0
   -5.0047    0.4466   10.9004 C   0  0  0  0  0  0
    0.4309    9.9807   16.8314 H   0  0  0  0  0  0
   -2.9282    6.2210   13.2116 H   0  0  0  0  0  0
  1  2  1  0  0  0
  1  4  1  0  0  0
  1  8  2  0  0  0
  2  9  1  0  0  0
  2 10  1  0  0  0
  3  5  1  0  0  0
  3  7  1  0  0  0
  3 11  2  0  0  0
  4  6  1  0  0  0
  4 29  1  0  0  0
  5 12  1  0  0  0
  5 30  1  0  0  0
  6 17  2  0  0  0
  6 18  1  0  0  0
  7 19  1  0  0  0
  7 20  2  0  0  0
  9 13  1  0  0  0
 10 14  1  0  0  0
 12 13  1  0  0  0
 12 14  1  0  0  0
 15 18  2  0  0  0
 15 21  1  0  0  0
 15 26  1  0  0  0
 16 17  1  0  0  0
 16 21  2  0  0  0
 16 27  1  0  0  0
 19 24  2  0  0  0
 20 23  1  0  0  0
 22 23  2  0  0  0
 22 24  1  0  0  0
 22 25  1  0  0  0
 25 28  1  0  0  0
M  END
>  <$CLUSTER>
250

>  <CHROM.0>
2.59381099,170.82101146,73.27601631

>  <CHROM.1>
-1.22218309,7.74328590,14.82122878,0.69738605,-0.52753382,-0.14022337

>  <INDEX>
156626

>  <Name>
Asinex ASN 06235439

>  <RI>
-1.67511e+09

>  <Rbt.Current_Directory>
/aloy/home/acomajuncosa/PocketVec_v2/GitLab_repo

>  <Rbt.Executable>
rbdock ($Id: //depot/dev/client3/rdock/2021.1/src/exe/rbdock.cxx#4 $)

>  <Rbt.Library>
libRbt.so (2021.1, Build901 2021/07/19)

>  <Rbt.Parameter_File>
results/run_pocketvec/dock.prm

>  <Rbt.Receptor>
results/run_pocketvec/st_parameters.prm

>  <SCORE>
-11.9651

>  <SCORE.INTER>
-6.36252

>  <SCORE.INTER.CONST>
1

>  <SCORE.INTER.POLAR>
0

>  <SCORE.INTER.REPUL>
0

>  <SCORE.INTER.ROT>
4

>  <SCORE.INTER.VDW>
-15.7625

>  <SCORE.INTER.norm>
-0.227233

>  <SCORE.INTRA>
-4.4329e-12

>  <SCORE.INTRA.DIHEDRAL>
1.23324e-12

>  <SCORE.INTRA.DIHEDRAL.0>
3.61747

>  <SCORE.INTRA.POLAR>
0

>  <SCORE.INTRA.POLAR.0>
0

>  <SCORE.INTRA.REPUL>
0

>  <SCORE.INTRA.REPUL.0>
0

>  <SCORE.INTRA.VDW>
-5.04952e-12

>  <SCORE.INTRA.VDW.0>
1.46568

>  <SCORE.INTRA.norm>
-1.58318e-13

>  <SCORE.RESTR>
0

>  <SCORE.RESTR.CAVITY>
0

>  <SCORE.RESTR.norm>
0

>  <SCORE.SYSTEM>
-5.6026

>  <SCORE.SYSTEM.CONST>
0

>  <SCORE.SYSTEM.DIHEDRAL>
1.31149

>  <SCORE.SYSTEM.POLAR>
-1.74075

>  <SCORE.SYSTEM.VDW>
-0.339805

>  <SCORE.SYSTEM.norm>
-0.200093

>  <SCORE.heavy>
28

>  <SCORE.norm>
-0.427326

$$$$
Specs AA-504/36954121
  rDOCK(R)          3D
libRbt.so/2021.1/901 2021/07/19
 29 32  0  0  0  0  0  0  0  0999 V2000
   -3.7353    5.3474    9.1057 C   0  0  0  0  0  0
   -4.8002    6.4552    9.8501 S   0  0  0  0  0  0
   -2.4799    5.2837    9.6621 N   0  0  0  0  0  0
   -4.2382    4.6844    8.0897 N   0  0  0  0  0  0
   -5.5523    5.0453    7.8478 N   0  0  0  0  0  0
   -5.9694    5.9626    8.6948 C   0  0  0  0  0  0
   -1.5126    4.4282    9.1608 C   0  0  0  0  0  0
   -0.2206    4.5404    9.9290 C   0  0  0  0  0  0
   -8.3568    9.6487    6.9679 C   0  0  0  0  0  0
   -1.6254    3.6631    8.2079 O   0  0  0  0  0  0
   -7.2824    7.7375    7.9090 O   0  0  0  0  0  0
   -8.4531    8.4705    7.7557 C   0  0  0  0  0  0
   -7.3403    6.5527    8.6891 C   0  0  0  0  0  0
   -0.1262    4.9121   11.2469 C   0  0  0  0  0  0
    0.9571    4.1512    9.2229 C   0  0  0  0  0  0
   -9.5154   10.4432    6.7729 C   0  0  0  0  0  0
    2.2732    4.6015   11.1988 C   0  0  0  0  0  0
    2.1946    4.1974    9.8680 C   0  0  0  0  0  0
    1.1139    4.9558   11.8879 C   0  0  0  0  0  0
    3.5459    4.5921   11.7218 O   0  0  0  0  0  0
  -10.8095    8.8965    8.1237 C   0  0  0  0  0  0
   -9.6790    8.1071    8.3249 C   0  0  0  0  0  0
   -7.1533   10.0755    6.3632 C   0  0  0  0  0  0
  -10.7297   10.0542    7.3555 C   0  0  0  0  0  0
   -9.4412   11.6125    5.9975 C   0  0  0  0  0  0
    3.6882    4.9910   13.0809 C   0  0  0  0  0  0
   -7.0960   11.2408    5.5963 C   0  0  0  0  0  0
   -8.2392   12.0088    5.4130 C   0  0  0  0  0  0
   -2.2583    5.8717   10.4522 H   0  0  0  0  0  0
  1  2  1  0  0  0
  1  3  1  0  0  0
  1  4  2  0  0  0
  2  6  1  0  0  0
  3  7  1  0  0  0
  3 29  1  0  0  0
  4  5  1  0  0  0
  5  6  2  0  0  0
  6 13  1  0  0  0
  7  8  1  0  0  0
  7 10  2  0  0  0
  8 14  1  0  0  0
  8 15  2  0  0  0
  9 12  2  0  0  0
  9 16  1  0  0  0
  9 23  1  0  0  0
 11 12  1  0  0  0
 11 13  1  0  0  0
 12 22  1  0  0  0
 14 19  2  0  0  0
 15 18  1  0  0  0
 16 24  2  0  0  0
 16 25  1  0  0  0
 17 18  2  0  0  0
 17 19  1  0  0  0
 17 20  1  0  0  0
 20 26  1  0  0  0
 21 22  2  0  0  0
 21 24  1  0  0  0
 23 27  2  0  0  0
 25 28  2  0  0  0
 27 28  1  0  0  0
M  END
>  <$CLUSTER>
744

>  <CHROM.0>
177.71738764,69.47059607,73.96321252

>  <CHROM.1>
-4.23005991,6.80134149,8.80976888,0.52966770,0.19921911,2.82783785

>  <INDEX>
488231

>  <Name>
Specs AA-504/36954121

>  <RI>
-1.67511e+09

>  <Rbt.Current_Directory>
/aloy/home/acomajuncosa/PocketVec_v2/GitLab_repo

>  <Rbt.Executable>
rbdock ($Id: //depot/dev/client3/rdock/2021.1/src/exe/rbdock.cxx#4 $)

>  <Rbt.Library>
libRbt.so (2021.1, Build901 2021/07/19)

>  <Rbt.Parameter_File>
results/run_pocketvec/dock.prm

>  <Rbt.Receptor>
results/run_pocketvec/st_parameters.prm

>  <SCORE>
-13.6625

>  <SCORE.INTER>
-11.2442

>  <SCORE.INTER.CONST>
1

>  <SCORE.INTER.POLAR>
-1.71987

>  <SCORE.INTER.REPUL>
0.0412669

>  <SCORE.INTER.ROT>
6

>  <SCORE.INTER.VDW>
-17.003

>  <SCORE.INTER.norm>
-0.401579

>  <SCORE.INTRA>
-3.00737e-12

>  <SCORE.INTRA.DIHEDRAL>
3.35731e-13

>  <SCORE.INTRA.DIHEDRAL.0>
3.75702

>  <SCORE.INTRA.POLAR>
0

>  <SCORE.INTRA.POLAR.0>
0

>  <SCORE.INTRA.REPUL>
0

>  <SCORE.INTRA.REPUL.0>
0

>  <SCORE.INTRA.VDW>
-3.17524e-12

>  <SCORE.INTRA.VDW.0>
2.32785

>  <SCORE.INTRA.norm>
-1.07406e-13

>  <SCORE.RESTR>
0.00127551

>  <SCORE.RESTR.CAVITY>
0.00127551

>  <SCORE.RESTR.norm>
4.5554e-05

>  <SCORE.SYSTEM>
-2.41955

>  <SCORE.SYSTEM.CONST>
0

>  <SCORE.SYSTEM.DIHEDRAL>
1.42736

>  <SCORE.SYSTEM.POLAR>
-0.751424

>  <SCORE.SYSTEM.VDW>
-0.578389

>  <SCORE.SYSTEM.norm>
-0.0864125

>  <SCORE.heavy>
28

>  <SCORE.norm>
-0.487946

$$$$
Specs AP-866/42442546
  rDOCK(R)          3D
libRbt.so/2021.1/901 2021/07/19
 26 27  0  0  0  0  0  0  0  0999 V2000
   -3.3499    3.8292   14.9735 S   0  0  0  0  0  0
   -3.3303    0.1847   10.9538 S   0  0  0  0  0  0
   -3.6900    3.4628   13.2673 C   0  0  0  0  0  0
   -1.2317    8.1364   11.2293 C   0  0  0  0  0  0
   -3.4162    2.1686   12.8260 C   0  0  0  0  0  0
   -1.9943    4.8059   14.8958 N   0  0  0  0  0  0
   -3.7024    1.8209   11.5050 C   0  0  0  0  0  0
   -1.7711    7.7590   12.5767 C   0  0  0  0  0  0
   -2.9452    2.6069   15.6457 O   0  0  0  0  0  0
   -4.4434    4.6131   15.5178 O   0  0  0  0  0  0
   -3.4939    0.1458    9.5131 O   0  0  0  0  0  0
   -2.0718   -0.2001   11.5626 O   0  0  0  0  0  0
   -4.2396    4.3997   12.3910 C   0  0  0  0  0  0
   -2.1197    6.1561   14.3527 C   0  0  0  0  0  0
   -1.6045    6.4726   13.0914 C   0  0  0  0  0  0
   -4.2455    2.7514   10.6199 C   0  0  0  0  0  0
   -0.3519    9.1695   11.3323 F   0  0  0  0  0  0
   -2.2331    8.5555   10.4086 F   0  0  0  0  0  0
   -0.5817    7.1394   10.5665 F   0  0  0  0  0  0
   -4.5157    4.0438   11.0694 C   0  0  0  0  0  0
   -4.6206   -0.8004   11.6674 C   0  0  0  0  0  0
   -2.4504    8.7262   13.3161 C   0  0  0  0  0  0
   -2.9636    8.4091   14.5733 C   0  0  0  0  0  0
   -2.7997    7.1247   15.0940 C   0  0  0  0  0  0
   -4.5750    5.8366   12.8085 C   0  0  0  0  0  0
   -1.0997    4.4669   15.2204 H   0  0  0  0  0  0
  1  3  1  0  0  0
  1  6  1  0  0  0
  1  9  2  0  0  0
  1 10  2  0  0  0
  2  7  1  0  0  0
  2 11  2  0  0  0
  2 12  2  0  0  0
  2 21  1  0  0  0
  3  5  2  0  0  0
  3 13  1  0  0  0
  4  8  1  0  0  0
  4 17  1  0  0  0
  4 18  1  0  0  0
  4 19  1  0  0  0
  5  7  1  0  0  0
  6 14  1  0  0  0
  6 26  1  0  0  0
  7 16  2  0  0  0
  8 15  2  0  0  0
  8 22  1  0  0  0
 13 20  2  0  0  0
 13 25  1  0  0  0
 14 15  1  0  0  0
 14 24  2  0  0  0
 16 20  1  0  0  0
 22 23  2  0  0  0
 23 24  1  0  0  0
M  END
>  <$CLUSTER>
826

>  <CHROM.0>
177.46441615,171.37597185,73.70677661

>  <CHROM.1>
-2.88892063,4.47695085,12.60021699,2.34806882,-1.23477189,-2.26434372

>  <INDEX>
533907

>  <Name>
Specs AP-866/42442546

>  <RI>
-1.67511e+09

>  <Rbt.Current_Directory>
/aloy/home/acomajuncosa/PocketVec_v2/GitLab_repo

>  <Rbt.Executable>
rbdock ($Id: //depot/dev/client3/rdock/2021.1/src/exe/rbdock.cxx#4 $)

>  <Rbt.Library>
libRbt.so (2021.1, Build901 2021/07/19)

>  <Rbt.Parameter_File>
results/run_pocketvec/dock.prm

>  <Rbt.Receptor>
results/run_pocketvec/st_parameters.prm

>  <SCORE>
-16.0513

>  <SCORE.INTER>
-10.5943

>  <SCORE.INTER.CONST>
1

>  <SCORE.INTER.POLAR>
-1.53248

>  <SCORE.INTER.REPUL>
0

>  <SCORE.INTER.ROT>
5

>  <SCORE.INTER.VDW>
-15.7839

>  <SCORE.INTER.norm>
-0.423773

>  <SCORE.INTRA>
-1.55653e-13

>  <SCORE.INTRA.DIHEDRAL>
-3.39284e-13

>  <SCORE.INTRA.DIHEDRAL.0>
15.9248

>  <SCORE.INTRA.POLAR>
0

>  <SCORE.INTRA.POLAR.0>
0

>  <SCORE.INTRA.REPUL>
0

>  <SCORE.INTRA.REPUL.0>
0

>  <SCORE.INTRA.VDW>
1.39888e-14

>  <SCORE.INTRA.VDW.0>
-1.67479

>  <SCORE.INTRA.norm>
-6.22613e-15

>  <SCORE.RESTR>
0

>  <SCORE.RESTR.CAVITY>
0

>  <SCORE.RESTR.norm>
0

>  <SCORE.SYSTEM>
-5.45696

>  <SCORE.SYSTEM.CONST>
0

>  <SCORE.SYSTEM.DIHEDRAL>
1.32596

>  <SCORE.SYSTEM.POLAR>
-1.7443

>  <SCORE.SYSTEM.VDW>
-0.189314

>  <SCORE.SYSTEM.norm>
-0.218279

>  <SCORE.heavy>
25

>  <SCORE.norm>
-0.642051

$$$$
EMC Microcollections 009B3204
  rDOCK(R)          3D
libRbt.so/2021.1/901 2021/07/19
 34 36  0  0  0  0  0  0  0  0999 V2000
   -3.1606    2.4909   12.9582 C   0  0  0  0  0  0
   -3.8977    3.1233   13.9146 N   0  0  0  0  0  0
   -4.8530    2.2577   14.1616 C   0  0  0  0  0  0
   -1.9241    3.0830   12.3292 C   0  0  0  0  0  0
   -4.7979    1.1053   13.4400 O   0  0  0  0  0  0
   -3.6939    1.2672   12.6605 C   0  0  0  0  0  0
    2.5379    8.0122   11.6714 C   0  0  0  0  0  0
   -1.6483    4.3410   12.8512 N   0  0  0  0  0  0
    1.4816    7.0218   11.9613 C   0  0  0  0  0  0
    3.9266    7.6035   11.3784 C   0  0  0  0  0  0
   -1.2999    2.4677   11.4712 O   0  0  0  0  0  0
    2.2550    9.2048   11.6741 O   0  0  0  0  0  0
   -5.9846    2.3716   15.1327 C   0  0  0  0  0  0
   -0.5662    5.2093   12.5105 C   0  0  0  0  0  0
    4.6565    8.3324   10.4347 C   0  0  0  0  0  0
    1.4252    5.8064   11.2745 C   0  0  0  0  0  0
    4.5246    6.5404   12.0601 C   0  0  0  0  0  0
    0.5029    7.3412   12.9081 C   0  0  0  0  0  0
    6.5708    6.9073   10.8246 C   0  0  0  0  0  0
   -6.5332    3.7588   15.1907 N   0  3  0  0  0  0
   -0.5171    6.4296   13.1843 C   0  0  0  0  0  0
    0.4015    4.8995   11.5556 C   0  0  0  0  0  0
    7.8660    6.5638   10.5423 N   0  0  0  0  0  0
    5.8461    6.1915   11.7769 C   0  0  0  0  0  0
    5.9772    7.9783   10.1562 C   0  0  0  0  0  0
   -5.5483    1.9802   16.5393 C   0  0  0  0  0  0
   -6.6716    1.9152   17.6036 C   0  0  0  0  0  0
   -6.1779    1.3991   18.9463 C   0  0  0  0  0  0
   -2.2890    4.6817   13.5541 H   0  0  0  0  0  0
   -5.8181    4.3900   15.5221 H   0  0  0  0  0  0
   -7.3212    3.7831   15.8217 H   0  0  0  0  0  0
   -6.8318    4.0419   14.2680 H   0  0  0  0  0  0
    8.3872    7.0855    9.8524 H   0  0  0  0  0  0
    8.2993    5.7888   11.0244 H   0  0  0  0  0  0
  1  2  1  0  0  0
  1  4  1  0  0  0
  1  6  2  0  0  0
  2  3  2  0  0  0
  3  5  1  0  0  0
  3 13  1  0  0  0
  4  8  1  0  0  0
  4 11  2  0  0  0
  5  6  1  0  0  0
  7  9  1  0  0  0
  7 10  1  0  0  0
  7 12  2  0  0  0
  8 14  1  0  0  0
  8 29  1  0  0  0
  9 16  1  0  0  0
  9 18  2  0  0  0
 10 15  1  0  0  0
 10 17  2  0  0  0
 13 20  1  0  0  0
 13 26  1  0  0  0
 14 21  2  0  0  0
 14 22  1  0  0  0
 15 25  2  0  0  0
 16 22  2  0  0  0
 17 24  1  0  0  0
 18 21  1  0  0  0
 19 23  1  0  0  0
 19 24  2  0  0  0
 19 25  1  0  0  0
 20 30  1  0  0  0
 20 31  1  0  0  0
 20 32  1  0  0  0
 23 33  1  0  0  0
 23 34  1  0  0  0
 26 27  1  0  0  0
 27 28  1  0  0  0
M  END
>  <$CLUSTER>
341

>  <CHROM.0>
178.19171736,172.45134076,73.75869191

>  <CHROM.1>
-0.45108736,4.78308564,12.95838561,-2.93595004,0.54951629,0.49090020

>  <INDEX>
218044

>  <Name>
EMC Microcollections 009B3204

>  <RI>
-1.67511e+09

>  <Rbt.Current_Directory>
/aloy/home/acomajuncosa/PocketVec_v2/GitLab_repo

>  <Rbt.Executable>
rbdock ($Id: //depot/dev/client3/rdock/2021.1/src/exe/rbdock.cxx#4 $)

>  <Rbt.Library>
libRbt.so (2021.1, Build901 2021/07/19)

>  <Rbt.Parameter_File>
results/run_pocketvec/dock.prm

>  <Rbt.Receptor>
results/run_pocketvec/st_parameters.prm

>  <SCORE>
-7.95228

>  <SCORE.INTER>
-2.49619

>  <SCORE.INTER.CONST>
1

>  <SCORE.INTER.POLAR>
0

>  <SCORE.INTER.REPUL>
0

>  <SCORE.INTER.ROT>
7

>  <SCORE.INTER.VDW>
-14.8962

>  <SCORE.INTER.norm>
-0.0891497

>  <SCORE.INTRA>
-2.08356e-12

>  <SCORE.INTRA.DIHEDRAL>
-3.62377e-13

>  <SCORE.INTRA.DIHEDRAL.0>
10.7085

>  <SCORE.INTRA.POLAR>
-1.91319e-13

>  <SCORE.INTRA.POLAR.0>
-0.14771

>  <SCORE.INTRA.REPUL>
0

>  <SCORE.INTRA.REPUL.0>
0

>  <SCORE.INTRA.VDW>
-1.25189e-12

>  <SCORE.INTRA.VDW.0>
-2.09363

>  <SCORE.INTRA.norm>
-7.44129e-14

>  <SCORE.RESTR>
0

>  <SCORE.RESTR.CAVITY>
0

>  <SCORE.RESTR.norm>
0

>  <SCORE.SYSTEM>
-5.45608

>  <SCORE.SYSTEM.CONST>
0

>  <SCORE.SYSTEM.DIHEDRAL>
1.24434

>  <SCORE.SYSTEM.POLAR>
-1.74473

>  <SCORE.SYSTEM.VDW>
-0.14617

>  <SCORE.SYSTEM.norm>
-0.19486

>  <SCORE.heavy>
28

>  <SCORE.norm>
-0.28401

$$$$
Chembridge 9014479
  rDOCK(R)          3D
libRbt.so/2021.1/901 2021/07/19
 24 26  0  0  0  0  0  0  0  0999 V2000
   -6.8077    8.3377   10.2687 N   0  0  0  0  0  0
   -6.2230    7.1361    9.9851 C   0  0  0  0  0  0
   -6.2711    9.1368    8.0012 C   0  0  0  0  0  0
   -6.8745    9.4870    9.3648 C   0  0  0  0  0  0
   -6.3439    6.3661   11.0433 N   0  0  0  0  0  0
   -5.7106    7.9269    7.7640 C   0  0  0  0  0  0
   -5.6809    6.9547    8.7632 N   0  0  0  0  0  0
   -7.3316    8.3218   11.5018 N   0  0  0  0  0  0
   -7.0342    7.1164   11.9753 N   0  0  0  0  0  0
   -6.2134   10.6947   10.0073 C   0  0  0  0  0  0
   -6.2941   10.1787    6.9591 C   0  0  0  0  0  0
   -6.9750   11.8415   10.2829 C   0  0  0  0  0  0
   -5.3345   10.5310    6.2892 O   0  0  0  0  0  0
   -7.5371   10.7056    6.8561 O   0  0  0  0  0  0
   -6.3840   12.9631   10.8683 C   0  0  0  0  0  0
   -5.1189    7.4942    6.4478 C   0  0  0  0  0  0
   -4.8465   10.7008   10.3316 C   0  0  0  0  0  0
   -7.2509   14.0151   11.0818 O   0  0  0  0  0  0
   -4.2590   11.8232   10.9164 C   0  0  0  0  0  0
   -5.0280   12.9542   11.1843 C   0  0  0  0  0  0
   -6.7064   15.1915   11.6762 C   0  0  0  0  0  0
   -7.7199   11.7402    5.8800 C   0  0  0  0  0  0
   -7.8269   16.2075   11.8147 C   0  0  0  0  0  0
   -5.2317    6.0726    8.5627 H   0  0  0  0  0  0
  1  2  1  0  0  0
  1  4  1  0  0  0
  1  8  1  0  0  0
  2  5  2  0  0  0
  2  7  1  0  0  0
  3  4  1  0  0  0
  3  6  2  0  0  0
  3 11  1  0  0  0
  4 10  1  0  0  0
  5  9  1  0  0  0
  6  7  1  0  0  0
  6 16  1  0  0  0
  7 24  1  0  0  0
  8  9  2  0  0  0
 10 12  2  0  0  0
 10 17  1  0  0  0
 11 13  2  0  0  0
 11 14  1  0  0  0
 12 15  1  0  0  0
 14 22  1  0  0  0
 15 18  1  0  0  0
 15 20  2  0  0  0
 17 19  2  0  0  0
 18 21  1  0  0  0
 19 20  1  0  0  0
 21 23  1  0  0  0
M  END
>  <$CLUSTER>
742

>  <CHROM.0>
177.55172725,171.78515832,74.03995271

>  <CHROM.1>
-6.36431265,10.37738436,9.49710206,-0.00684198,-1.47670884,1.90772028

>  <INDEX>
110513

>  <Name>
Chembridge 9014479

>  <RI>
-1.67511e+09

>  <Rbt.Current_Directory>
/aloy/home/acomajuncosa/PocketVec_v2/GitLab_repo

>  <Rbt.Executable>
rbdock ($Id: //depot/dev/client3/rdock/2021.1/src/exe/rbdock.cxx#4 $)

>  <Rbt.Library>
libRbt.so (2021.1, Build901 2021/07/19)

>  <Rbt.Parameter_File>
results/run_pocketvec/dock.prm

>  <Rbt.Receptor>
results/run_pocketvec/st_parameters.prm

>  <SCORE>
-9.01461

>  <SCORE.INTER>
-3.5776

>  <SCORE.INTER.CONST>
1

>  <SCORE.INTER.POLAR>
-1.0045

>  <SCORE.INTER.REPUL>
0

>  <SCORE.INTER.ROT>
5

>  <SCORE.INTER.VDW>
-10.5623

>  <SCORE.INTER.norm>
-0.155548

>  <SCORE.INTRA>
-1.38645e-12

>  <SCORE.INTRA.DIHEDRAL>
-1.70175e-12

>  <SCORE.INTRA.DIHEDRAL.0>
7.22902

>  <SCORE.INTRA.POLAR>
0

>  <SCORE.INTRA.POLAR.0>
0

>  <SCORE.INTRA.REPUL>
0

>  <SCORE.INTRA.REPUL.0>
0

>  <SCORE.INTRA.VDW>
-5.35572e-13

>  <SCORE.INTRA.VDW.0>
0.159168

>  <SCORE.INTRA.norm>
-6.02803e-14

>  <SCORE.RESTR>
0.0221161

>  <SCORE.RESTR.CAVITY>
0.0221161

>  <SCORE.RESTR.norm>
0.00096157

>  <SCORE.SYSTEM>
-5.45913

>  <SCORE.SYSTEM.CONST>
0

>  <SCORE.SYSTEM.DIHEDRAL>
1.33414

>  <SCORE.SYSTEM.POLAR>
-1.74704

>  <SCORE.SYSTEM.VDW>
-0.186256

>  <SCORE.SYSTEM.norm>
-0.237353

>  <SCORE.heavy>
23

>  <SCORE.norm>
-0.39194

$$$$
Chem T&I NSB 0071574
  rDOCK(R)          3D
libRbt.so/2021.1/901 2021/07/19
 32 34  0  0  0  0  0  0  0  0999 V2000
   -3.3805    0.3074   10.7218 S   0  0  0  0  0  0
   -4.6698    1.2088   11.3272 N   0  0  0  0  0  0
    2.8936    5.7896   10.4842 C   0  0  0  0  0  0
    1.6741    5.0539    9.9845 C   0  0  0  0  0  0
   -4.6238    1.5388   12.6964 C   0  0  0  0  0  0
   -4.2475    2.8049   12.9369 N   0  0  0  0  0  0
   -4.1838    3.1433   14.2365 C   0  0  0  0  0  0
   -4.4477    2.3318   15.2817 N   0  0  0  0  0  0
    1.2269    4.1300   10.9214 N   0  0  0  0  0  0
   -2.0307    1.4867   10.7637 C   0  0  0  0  0  0
   -4.9165    0.6100   13.6718 C   0  0  0  0  0  0
   -3.0866   -0.7860   11.6351 O   0  0  0  0  0  0
   -3.6837    0.0128    9.3281 O   0  0  0  0  0  0
    3.9702    6.0254    9.5894 C   0  0  0  0  0  0
    2.9176    6.3052   11.7698 C   0  0  0  0  0  0
   -4.8123    1.0679   14.9673 C   0  0  0  0  0  0
    1.2001    5.2996    8.8805 O   0  0  0  0  0  0
   -1.8064    2.3038    9.6656 C   0  0  0  0  0  0
   -1.2037    1.5157   11.8810 C   0  0  0  0  0  0
    5.0718    6.7530   10.0540 C   0  0  0  0  0  0
    0.1015    3.2482   10.8128 C   0  0  0  0  0  0
    4.0217    7.0290   12.2158 C   0  0  0  0  0  0
   -0.7325    3.1960    9.6953 C   0  0  0  0  0  0
   -0.1320    2.4102   11.9038 C   0  0  0  0  0  0
    5.0962    7.2510   11.3600 C   0  0  0  0  0  0
    4.0426    7.6327   13.8072 Cl  0  0  0  0  0  0
    3.8752    5.4837    8.3326 O   0  0  0  0  0  0
   -3.7805    4.5711   14.5787 C   0  0  0  0  0  0
   -5.1108    0.1405   16.1079 C   0  0  0  0  0  0
    4.9433    5.7324    7.4274 C   0  0  0  0  0  0
   -5.4370    1.4982   10.7381 H   0  0  0  0  0  0
    1.7570    4.0727   11.7795 H   0  0  0  0  0  0
  1  2  1  0  0  0
  1 10  1  0  0  0
  1 12  2  0  0  0
  1 13  2  0  0  0
  2  5  1  0  0  0
  2 31  1  0  0  0
  3  4  1  0  0  0
  3 14  2  0  0  0
  3 15  1  0  0  0
  4  9  1  0  0  0
  4 17  2  0  0  0
  5  6  1  0  0  0
  5 11  2  0  0  0
  6  7  2  0  0  0
  7  8  1  0  0  0
  7 28  1  0  0  0
  8 16  2  0  0  0
  9 21  1  0  0  0
  9 32  1  0  0  0
 10 18  2  0  0  0
 10 19  1  0  0  0
 11 16  1  0  0  0
 14 20  1  0  0  0
 14 27  1  0  0  0
 15 22  2  0  0  0
 16 29  1  0  0  0
 18 23  1  0  0  0
 19 24  2  0  0  0
 20 25  2  0  0  0
 21 23  2  0  0  0
 21 24  1  0  0  0
 22 25  1  0  0  0
 22 26  1  0  0  0
 27 30  1  0  0  0
M  END
>  <$CLUSTER>
636

>  <CHROM.0>
175.40741347,171.81416093,73.07048360

>  <CHROM.1>
-0.45929022,3.48619104,11.60986315,-3.10322833,0.62154262,1.12697184

>  <INDEX>
574624

>  <Name>
Chem T&I NSB 0071574

>  <RI>
-1.67511e+09

>  <Rbt.Current_Directory>
/aloy/home/acomajuncosa/PocketVec_v2/GitLab_repo

>  <Rbt.Executable>
rbdock ($Id: //depot/dev/client3/rdock/2021.1/src/exe/rbdock.cxx#4 $)

>  <Rbt.Library>
libRbt.so (2021.1, Build901 2021/07/19)

>  <Rbt.Parameter_File>
results/run_pocketvec/dock.prm

>  <Rbt.Receptor>
results/run_pocketvec/st_parameters.prm

>  <SCORE>
-16.861

>  <SCORE.INTER>
-11.4091

>  <SCORE.INTER.CONST>
1

>  <SCORE.INTER.POLAR>
-0.89118

>  <SCORE.INTER.REPUL>
0.00749072

>  <SCORE.INTER.ROT>
6

>  <SCORE.INTER.VDW>
-19.8165

>  <SCORE.INTER.norm>
-0.380303

>  <SCORE.INTRA>
7.69829e-13

>  <SCORE.INTRA.DIHEDRAL>
5.15143e-13

>  <SCORE.INTRA.DIHEDRAL.0>
20.9123

>  <SCORE.INTRA.POLAR>
0

>  <SCORE.INTRA.POLAR.0>
0

>  <SCORE.INTRA.REPUL>
0

>  <SCORE.INTRA.REPUL.0>
0

>  <SCORE.INTRA.VDW>
5.12257e-13

>  <SCORE.INTRA.VDW.0>
-1.00244

>  <SCORE.INTRA.norm>
2.5661e-14

>  <SCORE.RESTR>
0

>  <SCORE.RESTR.CAVITY>
0

>  <SCORE.RESTR.norm>
0

>  <SCORE.SYSTEM>
-5.45187

>  <SCORE.SYSTEM.CONST>
0

>  <SCORE.SYSTEM.DIHEDRAL>
1.23934

>  <SCORE.SYSTEM.POLAR>
-1.73905

>  <SCORE.SYSTEM.VDW>
-0.158791

>  <SCORE.SYSTEM.norm>
-0.181729

>  <SCORE.heavy>
30

>  <SCORE.norm>
-0.562032

$$$$
Chem T&I AMSACS-12929
  rDOCK(R)          3D
libRbt.so/2021.1/901 2021/07/19
 23 24  0  0  0  0  0  0  0  0999 V2000
   -5.0765    2.3256   14.6022 S   0  0  0  0  0  0
   -4.9147    1.4822   13.0574 C   0  0  0  0  0  0
   -3.4871    2.9028   14.8056 N   0  0  0  0  0  0
   -0.6380    5.5593   13.1685 N   0  3  0  0  0  0
   -4.5766    0.1288   13.0454 C   0  0  0  0  0  0
   -4.4770   -0.5396   11.8252 C   0  0  0  0  0  0
   -5.9669    3.4515   14.4008 O   0  0  0  0  0  0
   -5.3539    1.3328   15.6213 O   0  0  0  0  0  0
   -4.7203    0.1404   10.6311 C   0  0  0  0  0  0
   -1.7638    6.1791   13.9622 C   0  0  0  0  0  0
   -1.1177    4.4461   12.2669 C   0  0  0  0  0  0
   -5.1670    2.1694   11.8698 C   0  0  0  0  0  0
   -2.9303    3.9504   13.9347 C   0  0  0  0  0  0
   -5.0646    1.4923   10.6545 C   0  0  0  0  0  0
   -1.7899    3.3630   13.1126 C   0  0  0  0  0  0
   -2.4404    5.0948   14.8143 C   0  0  0  0  0  0
    0.1381    6.5959   12.4033 C   0  0  0  0  0  0
   -4.1545   -1.8293   11.7177 F   0  0  0  0  0  0
   -4.6030   -0.5701    9.5094 F   0  0  0  0  0  0
    1.5374    6.0587   12.0331 C   0  0  0  0  0  0
   -0.5629    7.1894   11.1952 C   0  0  0  0  0  0
   -2.8791    2.1017   14.7113 H   0  0  0  0  0  0
   -0.0071    5.1414   13.8372 H   0  0  0  0  0  0
  1  2  1  0  0  0
  1  3  1  0  0  0
  1  7  2  0  0  0
  1  8  2  0  0  0
  2  5  1  0  0  0
  2 12  2  0  0  0
  3 13  1  0  0  0
  3 22  1  0  0  0
  4 10  1  0  0  0
  4 11  1  0  0  0
  4 17  1  0  0  0
  4 23  1  0  0  0
  5  6  2  0  0  0
  6  9  1  0  0  0
  6 18  1  0  0  0
  9 14  2  0  0  0
  9 19  1  0  0  0
 10 16  1  0  0  0
 11 15  1  0  0  0
 12 14  1  0  0  0
 13 15  1  0  0  0
 13 16  1  0  0  0
 17 20  1  0  0  0
 17 21  1  0  0  0
M  END
>  <$CLUSTER>
792

>  <CHROM.0>
-0.34394726,170.72036406,70.32484342

>  <CHROM.1>
-3.30220138,2.81119142,12.88009812,2.52433007,-0.75018281,-2.26362946

>  <INDEX>
519041

>  <Name>
Chem T&I AMSACS-12929

>  <RI>
-1.67511e+09

>  <Rbt.Current_Directory>
/aloy/home/acomajuncosa/PocketVec_v2/GitLab_repo

>  <Rbt.Executable>
rbdock ($Id: //depot/dev/client3/rdock/2021.1/src/exe/rbdock.cxx#4 $)

>  <Rbt.Library>
libRbt.so (2021.1, Build901 2021/07/19)

>  <Rbt.Parameter_File>
results/run_pocketvec/dock.prm

>  <Rbt.Receptor>
results/run_pocketvec/st_parameters.prm

>  <SCORE>
-16.4244

>  <SCORE.INTER>
-10.863

>  <SCORE.INTER.CONST>
1

>  <SCORE.INTER.POLAR>
-2.15587

>  <SCORE.INTER.REPUL>
0

>  <SCORE.INTER.ROT>
4

>  <SCORE.INTER.VDW>
-12.933

>  <SCORE.INTER.norm>
-0.517284

>  <SCORE.INTRA>
7.30083e-13

>  <SCORE.INTRA.DIHEDRAL>
-3.10862e-14

>  <SCORE.INTRA.DIHEDRAL.0>
4.49033

>  <SCORE.INTRA.POLAR>
0

>  <SCORE.INTRA.POLAR.0>
0

>  <SCORE.INTRA.REPUL>
0

>  <SCORE.INTRA.REPUL.0>
0

>  <SCORE.INTRA.VDW>
7.45626e-13

>  <SCORE.INTRA.VDW.0>
1.87362

>  <SCORE.INTRA.norm>
3.47658e-14

>  <SCORE.RESTR>
0

>  <SCORE.RESTR.CAVITY>
0

>  <SCORE.RESTR.norm>
0

>  <SCORE.SYSTEM>
-5.56147

>  <SCORE.SYSTEM.CONST>
0

>  <SCORE.SYSTEM.DIHEDRAL>
0.995904

>  <SCORE.SYSTEM.POLAR>
-1.71596

>  <SCORE.SYSTEM.VDW>
-0.225154

>  <SCORE.SYSTEM.norm>
-0.264832

>  <SCORE.heavy>
21

>  <SCORE.norm>
-0.782116

$$$$
Life Chemicals F0396-0052
  rDOCK(R)          3D
libRbt.so/2021.1/901 2021/07/19
 28 31  0  0  0  0  0  0  0  0999 V2000
   -5.1089    4.5336   12.2040 C   0  0  0  0  0  0
   -5.4226    5.0316   13.4848 N   0  0  0  0  0  0
   -5.3646    6.3983   13.5176 N   0  0  0  0  0  0
   -5.0962    5.6419   11.3835 C   0  0  0  0  0  0
   -4.8278    3.1952   11.9794 N   0  0  0  0  0  0
   -5.2448    6.7353   12.2433 C   0  0  0  0  0  0
   -4.6521    2.6221   10.7303 C   0  0  0  0  0  0
   -5.7891    4.3375   14.6751 C   0  0  0  0  0  0
   -4.9021    7.8142    9.8793 S   0  0  0  0  0  0
   -4.3021    1.1591   10.8479 C   0  0  0  0  0  0
   -4.7752    3.1493    9.6304 O   0  0  0  0  0  0
   -4.8722    5.9555    9.9603 C   0  0  0  0  0  0
   -5.1899    8.0958   11.6891 C   0  0  0  0  0  0
   -5.6198    4.9715   15.9168 C   0  0  0  0  0  0
   -6.3698    3.0649   14.6341 C   0  0  0  0  0  0
   -3.6006    0.5965    9.7355 C   0  0  0  0  0  0
   -4.6519    0.3461   11.8995 C   0  0  0  0  0  0
   -6.5384    3.0439   17.0497 C   0  0  0  0  0  0
   -3.5945   -1.5537   10.8366 C   0  0  0  0  0  0
   -6.7357    2.4203   15.8190 C   0  0  0  0  0  0
   -3.2473   -0.7539    9.7499 C   0  0  0  0  0  0
   -4.2974   -1.0052   11.9082 C   0  0  0  0  0  0
   -5.9853    4.3208   17.0967 C   0  0  0  0  0  0
   -6.8681    2.5151   18.2749 O   0  0  0  0  0  0
   -3.1983   -2.8670   10.7260 O   0  0  0  0  0  0
   -7.4442    1.2135   18.2812 C   0  0  0  0  0  0
   -3.5293   -3.7338   11.8052 C   0  0  0  0  0  0
   -4.7450    2.5929   12.7854 H   0  0  0  0  0  0
  1  2  1  0  0  0
  1  4  2  0  0  0
  1  5  1  0  0  0
  2  3  1  0  0  0
  2  8  1  0  0  0
  3  6  2  0  0  0
  4  6  1  0  0  0
  4 12  1  0  0  0
  5  7  1  0  0  0
  5 28  1  0  0  0
  6 13  1  0  0  0
  7 10  1  0  0  0
  7 11  2  0  0  0
  8 14  1  0  0  0
  8 15  2  0  0  0
  9 12  1  0  0  0
  9 13  1  0  0  0
 10 16  2  0  0  0
 10 17  1  0  0  0
 14 23  2  0  0  0
 15 20  1  0  0  0
 16 21  1  0  0  0
 17 22  2  0  0  0
 18 20  2  0  0  0
 18 23  1  0  0  0
 18 24  1  0  0  0
 19 21  2  0  0  0
 19 22  1  0  0  0
 19 25  1  0  0  0
 24 26  1  0  0  0
 25 27  1  0  0  0
M  END
>  <$CLUSTER>
411

>  <CHROM.0>
-1.57765282,170.54957690,73.70932007

>  <CHROM.1>
-5.07530128,3.04688161,12.68940110,-2.21033468,-1.21816027,2.74447444

>  <INDEX>
269861

>  <Name>
Life Chemicals F0396-0052

>  <RI>
-1.67511e+09

>  <Rbt.Current_Directory>
/aloy/home/acomajuncosa/PocketVec_v2/GitLab_repo

>  <Rbt.Executable>
rbdock ($Id: //depot/dev/client3/rdock/2021.1/src/exe/rbdock.cxx#4 $)

>  <Rbt.Library>
libRbt.so (2021.1, Build901 2021/07/19)

>  <Rbt.Parameter_File>
results/run_pocketvec/dock.prm

>  <Rbt.Receptor>
results/run_pocketvec/st_parameters.prm

>  <SCORE>
30.9345

>  <SCORE.INTER>
36.5353

>  <SCORE.INTER.CONST>
1

>  <SCORE.INTER.POLAR>
-0.333378

>  <SCORE.INTER.REPUL>
0

>  <SCORE.INTER.ROT>
5

>  <SCORE.INTER.VDW>
27.2688

>  <SCORE.INTER.norm>
1.35316

>  <SCORE.INTRA>
-6.85541e-12

>  <SCORE.INTRA.DIHEDRAL>
-3.08642e-12

>  <SCORE.INTRA.DIHEDRAL.0>
5.78224

>  <SCORE.INTRA.POLAR>
0

>  <SCORE.INTRA.POLAR.0>
0

>  <SCORE.INTRA.REPUL>
0

>  <SCORE.INTRA.REPUL.0>
0

>  <SCORE.INTRA.VDW>
-5.3122e-12

>  <SCORE.INTRA.VDW.0>
3.63013

>  <SCORE.INTRA.norm>
-2.53904e-13

>  <SCORE.RESTR>
0

>  <SCORE.RESTR.CAVITY>
0

>  <SCORE.RESTR.norm>
0

>  <SCORE.SYSTEM>
-5.60077

>  <SCORE.SYSTEM.CONST>
0

>  <SCORE.SYSTEM.DIHEDRAL>
1.38888

>  <SCORE.SYSTEM.POLAR>
-1.74432

>  <SCORE.SYSTEM.VDW>
-0.364505

>  <SCORE.SYSTEM.norm>
-0.207436

>  <SCORE.heavy>
27

>  <SCORE.norm>
1.14572

$$$$
Chem T&I AMSACS-08712
  rDOCK(R)          3D
libRbt.so/2021.1/901 2021/07/19
 24 26  0  0  0  0  0  0  0  0999 V2000
   -4.5410    2.5659   11.9975 C   0  0  0  0  0  0
   -3.9911    1.1626   11.0844 S   0  0  0  0  0  0
   -4.4226    3.8937   11.5098 C   0  0  0  0  0  0
    2.2188    3.3801    8.3881 N   0  0  0  0  0  0
    1.5259    4.0537    9.3280 N   0  0  0  0  0  0
   -3.9013    4.2868   10.3361 N   0  0  0  0  0  0
   -4.0188    5.9409   10.2861 S   0  0  0  0  0  0
   -4.9165    5.0543   12.3441 C   0  0  0  0  0  0
    2.3172    4.7854   10.1780 C   0  0  0  0  0  0
    3.6108    4.5496    9.7636 C   0  0  0  0  0  0
   -4.7361    6.2449   11.7516 N   0  0  0  0  0  0
    3.4883    3.6819    8.6643 C   0  0  0  0  0  0
   -5.1315    2.4070   13.2636 C   0  0  0  0  0  0
   -4.1221   -0.0059   11.9323 O   0  0  0  0  0  0
   -4.6393    1.2257    9.7905 O   0  0  0  0  0  0
   -2.3325    1.5111   10.9138 N   0  0  0  0  0  0
   -5.5898    3.5002   14.0357 C   0  0  0  0  0  0
   -5.5014    4.8386   13.6151 C   0  0  0  0  0  0
    0.0644    3.9825    9.3098 C   0  0  0  0  0  0
    1.7995    5.6163   11.2914 C   0  0  0  0  0  0
   -0.4111    2.7731   10.1271 C   0  0  0  0  0  0
    4.5897    3.1506    7.8886 C   0  0  0  0  0  0
   -1.9220    2.6797   10.1101 C   0  0  0  0  0  0
   -1.9015    0.6989   10.4952 H   0  0  0  0  0  0
  1  2  1  0  0  0
  1  3  1  0  0  0
  1 13  2  0  0  0
  2 14  2  0  0  0
  2 15  2  0  0  0
  2 16  1  0  0  0
  3  6  2  0  0  0
  3  8  1  0  0  0
  4  5  1  0  0  0
  4 12  2  0  0  0
  5  9  1  0  0  0
  5 19  1  0  0  0
  6  7  1  0  0  0
  7 11  1  0  0  0
  8 11  2  0  0  0
  8 18  1  0  0  0
  9 10  2  0  0  0
  9 20  1  0  0  0
 10 12  1  0  0  0
 12 22  1  0  0  0
 13 17  1  0  0  0
 16 23  1  0  0  0
 16 24  1  0  0  0
 17 18  2  0  0  0
 19 21  1  0  0  0
 21 23  1  0  0  0
M  END
>  <$CLUSTER>
788

>  <CHROM.0>
-5.70215148,171.78970599,167.97028952

>  <CHROM.1>
-1.98334962,3.48290843,10.73627544,-3.09418451,0.36779590,0.11863390

>  <INDEX>
516346

>  <Name>
Chem T&I AMSACS-08712

>  <RI>
-1.67511e+09

>  <Rbt.Current_Directory>
/aloy/home/acomajuncosa/PocketVec_v2/GitLab_repo

>  <Rbt.Executable>
rbdock ($Id: //depot/dev/client3/rdock/2021.1/src/exe/rbdock.cxx#4 $)

>  <Rbt.Library>
libRbt.so (2021.1, Build901 2021/07/19)

>  <Rbt.Parameter_File>
results/run_pocketvec/dock.prm

>  <Rbt.Receptor>
results/run_pocketvec/st_parameters.prm

>  <SCORE>
-13.4354

>  <SCORE.INTER>
-10.9861

>  <SCORE.INTER.CONST>
1

>  <SCORE.INTER.POLAR>
-2.03055

>  <SCORE.INTER.REPUL>
0

>  <SCORE.INTER.ROT>
6

>  <SCORE.INTER.VDW>
-15.4822

>  <SCORE.INTER.norm>
-0.477656

>  <SCORE.INTRA>
-3.09891e-12

>  <SCORE.INTRA.DIHEDRAL>
-7.12319e-13

>  <SCORE.INTRA.DIHEDRAL.0>
3.54834

>  <SCORE.INTRA.POLAR>
0

>  <SCORE.INTRA.POLAR.0>
0

>  <SCORE.INTRA.REPUL>
0

>  <SCORE.INTRA.REPUL.0>
0

>  <SCORE.INTRA.VDW>
-2.74275e-12

>  <SCORE.INTRA.VDW.0>
-0.00195179

>  <SCORE.INTRA.norm>
-1.34735e-13

>  <SCORE.RESTR>
0

>  <SCORE.RESTR.CAVITY>
0

>  <SCORE.RESTR.norm>
0

>  <SCORE.SYSTEM>
-2.44928

>  <SCORE.SYSTEM.CONST>
0

>  <SCORE.SYSTEM.DIHEDRAL>
1.14074

>  <SCORE.SYSTEM.POLAR>
-0.994987

>  <SCORE.SYSTEM.VDW>
0.36331

>  <SCORE.SYSTEM.norm>
-0.10649

>  <SCORE.heavy>
23

>  <SCORE.norm>
-0.584146

$$$$
Life Chemicals F0560-0107
  rDOCK(R)          3D
libRbt.so/2021.1/901 2021/07/19
 29 32  0  0  0  0  0  0  0  0999 V2000
   -3.2215    3.7238   14.3163 N   0  0  0  0  0  0
   -3.7777    2.4297   12.3034 C   0  0  0  0  0  0
   -4.2487    3.4566   13.3111 C   0  0  0  0  0  0
   -3.1398    3.1099   15.5610 C   0  0  0  0  0  0
   -2.4576    2.2739   11.8419 C   0  0  0  0  0  0
   -1.3268    3.0266   12.2009 N   0  0  0  0  0  0
   -1.0800    4.0491   13.0653 C   0  0  0  0  0  0
   -2.1650    4.6541   13.9405 C   0  0  0  0  0  0
   -4.7779    1.5716   11.7788 C   0  0  0  0  0  0
   -4.8608    4.7251   12.7244 C   0  0  0  0  0  0
   -2.2761    3.3527   16.4000 O   0  0  0  0  0  0
   -4.1421    2.0957   15.9164 C   0  0  0  0  0  0
    0.0401    4.5682   13.0515 O   0  0  0  0  0  0
   -2.1876    1.2643   10.8905 C   0  0  0  0  0  0
   -4.5879    5.1845   11.4195 C   0  0  0  0  0  0
   -5.7229    5.4995   13.5265 C   0  0  0  0  0  0
   -4.4875    0.5831   10.8445 C   0  0  0  0  0  0
   -6.0162    7.1067   11.7482 C   0  0  0  0  0  0
   -3.1861    0.4275   10.3992 C   0  0  0  0  0  0
   -5.1628    6.3624   10.9387 C   0  0  0  0  0  0
   -6.2956    6.6761   13.0425 C   0  0  0  0  0  0
   -6.5234    8.2165   11.2098 F   0  0  0  0  0  0
   -5.1959    2.4509   16.7592 C   0  0  0  0  0  0
   -4.0132    0.7962   15.4279 C   0  0  0  0  0  0
   -5.5755   -0.2996   10.3289 C   0  0  0  0  0  0
   -6.1512    1.4913   17.0948 C   0  0  0  0  0  0
   -4.9736   -0.1576   15.7673 C   0  0  0  0  0  0
   -6.0417    0.1912   16.5970 C   0  0  0  0  0  0
   -0.4992    2.7404   11.6976 H   0  0  0  0  0  0
  1  3  1  0  0  0
  1  4  1  0  0  0
  1  8  1  0  0  0
  2  3  1  0  0  0
  2  5  2  0  0  0
  2  9  1  0  0  0
  3 10  1  0  0  0
  4 11  2  0  0  0
  4 12  1  0  0  0
  5  6  1  0  0  0
  5 14  1  0  0  0
  6  7  1  0  0  0
  6 29  1  0  0  0
  7  8  1  0  0  0
  7 13  2  0  0  0
  9 17  2  0  0  0
 10 15  2  0  0  0
 10 16  1  0  0  0
 12 23  2  0  0  0
 12 24  1  0  0  0
 14 19  2  0  0  0
 15 20  1  0  0  0
 16 21  2  0  0  0
 17 19  1  0  0  0
 17 25  1  0  0  0
 18 20  2  0  0  0
 18 21  1  0  0  0
 18 22  1  0  0  0
 23 26  1  0  0  0
 24 27  2  0  0  0
 26 28  2  0  0  0
 27 28  1  0  0  0
M  END
>  <$CLUSTER>
415

>  <CHROM.0>
171.86478443,172.20220153,73.18860545

>  <CHROM.1>
-4.03896887,3.24812363,13.27716644,1.25564118,-1.11841965,2.30955296

>  <INDEX>
274004

>  <Name>
Life Chemicals F0560-0107

>  <RI>
-1.67511e+09

>  <Rbt.Current_Directory>
/aloy/home/acomajuncosa/PocketVec_v2/GitLab_repo

>  <Rbt.Executable>
rbdock ($Id: //depot/dev/client3/rdock/2021.1/src/exe/rbdock.cxx#4 $)

>  <Rbt.Library>
libRbt.so (2021.1, Build901 2021/07/19)

>  <Rbt.Parameter_File>
results/run_pocketvec/dock.prm

>  <Rbt.Receptor>
results/run_pocketvec/st_parameters.prm

>  <SCORE>
-16.5436

>  <SCORE.INTER>
-11.0829

>  <SCORE.INTER.CONST>
1

>  <SCORE.INTER.POLAR>
0

>  <SCORE.INTER.REPUL>
0

>  <SCORE.INTER.ROT>
2

>  <SCORE.INTER.VDW>
-18.4829

>  <SCORE.INTER.norm>
-0.395816

>  <SCORE.INTRA>
3.30402e-13

>  <SCORE.INTRA.DIHEDRAL>
4.44089e-13

>  <SCORE.INTRA.DIHEDRAL.0>
13.0929

>  <SCORE.INTRA.POLAR>
0

>  <SCORE.INTRA.POLAR.0>
0

>  <SCORE.INTRA.REPUL>
0

>  <SCORE.INTRA.REPUL.0>
0

>  <SCORE.INTRA.VDW>
1.08358e-13

>  <SCORE.INTRA.VDW.0>
-3.17222

>  <SCORE.INTRA.norm>
1.18001e-14

>  <SCORE.RESTR>
0

>  <SCORE.RESTR.CAVITY>
0

>  <SCORE.RESTR.norm>
0

>  <SCORE.SYSTEM>
-5.46075

>  <SCORE.SYSTEM.CONST>
0

>  <SCORE.SYSTEM.DIHEDRAL>
1.29539

>  <SCORE.SYSTEM.POLAR>
-1.74002

>  <SCORE.SYSTEM.VDW>
-0.192369

>  <SCORE.SYSTEM.norm>
-0.195027

>  <SCORE.heavy>
28

>  <SCORE.norm>
-0.590843

$$$$
Chemdiv 8005-4355
  rDOCK(R)          3D
libRbt.so/2021.1/901 2021/07/19
 30 32  0  0  0  0  0  0  0  0999 V2000
   -5.6552    3.4114   15.9334 C   0  0  0  0  0  0
   -0.0326    9.3984   12.5505 N   0  0  0  0  0  0
   -2.0924    8.2808   13.0203 C   0  0  0  0  0  0
   -0.6346    8.3117   13.0958 N   0  0  0  0  0  0
   -4.3881    3.5931   15.3933 N   0  0  0  0  0  0
    1.2563    9.4912   12.7235 C   0  0  0  0  0  0
   -2.6251    7.0061   13.6717 C   0  0  0  0  0  0
    1.9547   10.7086   12.1640 C   0  0  0  0  0  0
   -6.5616    4.2314   16.0249 O   0  0  0  0  0  0
   -5.8343    2.0009   16.4404 C   0  0  0  0  0  0
   -2.8149    9.1062   12.5322 O   0  0  0  0  0  0
   -3.8461    4.7853   14.8212 C   0  0  0  0  0  0
   -3.9593    7.0995   14.1335 C   0  0  0  0  0  0
   -1.9378    5.8272   13.7572 C   0  0  0  0  0  0
    1.1895   11.7874   11.7000 C   0  0  0  0  0  0
    3.3525   10.7777   12.0752 C   0  0  0  0  0  0
    3.1963   12.9859   11.0937 C   0  0  0  0  0  0
   -2.5403    4.7078   14.3402 C   0  0  0  0  0  0
   -4.5557    5.9798   14.7160 C   0  0  0  0  0  0
    3.9687   11.9163   11.5436 C   0  0  0  0  0  0
    1.8068   12.9228   11.1700 C   0  0  0  0  0  0
    3.9990   14.4995   10.3929 Br  0  0  0  0  0  0
    2.1128    8.4860   13.4612 C   0  0  0  0  0  0
   -6.8230    1.8252   17.4558 C   0  0  0  0  0  0
   -5.1717    0.9012   15.9497 C   0  0  0  0  0  0
   -7.0719    0.5492   17.9656 C   0  0  0  0  0  0
   -5.4256   -0.3740   16.4621 C   0  0  0  0  0  0
   -6.3720   -0.5492   17.4699 C   0  0  0  0  0  0
   -0.1051    7.5681   13.5284 H   0  0  0  0  0  0
   -3.7784    2.7876   15.4070 H   0  0  0  0  0  0
  1  5  1  0  0  0
  1  9  2  0  0  0
  1 10  1  0  0  0
  2  4  1  0  0  0
  2  6  2  0  0  0
  3  4  1  0  0  0
  3  7  1  0  0  0
  3 11  2  0  0  0
  4 29  1  0  0  0
  5 12  1  0  0  0
  5 30  1  0  0  0
  6  8  1  0  0  0
  6 23  1  0  0  0
  7 13  1  0  0  0
  7 14  2  0  0  0
  8 15  1  0  0  0
  8 16  2  0  0  0
 10 24  2  0  0  0
 10 25  1  0  0  0
 12 18  2  0  0  0
 12 19  1  0  0  0
 13 19  2  0  0  0
 14 18  1  0  0  0
 15 21  2  0  0  0
 16 20  1  0  0  0
 17 20  2  0  0  0
 17 21  1  0  0  0
 17 22  1  0  0  0
 24 26  1  0  0  0
 25 27  2  0  0  0
 26 28  2  0  0  0
 27 28  1  0  0  0
M  END
>  <$CLUSTER>
829

>  <CHROM.0>
-0.10596350,171.20789810,73.80035677

>  <CHROM.1>
-1.08638472,7.94912079,13.45499764,2.20518627,-0.10258748,2.76809266

>  <INDEX>
104583

>  <Name>
Chemdiv 8005-4355

>  <RI>
-1.67511e+09

>  <Rbt.Current_Directory>
/aloy/home/acomajuncosa/PocketVec_v2/GitLab_repo

>  <Rbt.Executable>
rbdock ($Id: //depot/dev/client3/rdock/2021.1/src/exe/rbdock.cxx#4 $)

>  <Rbt.Library>
libRbt.so (2021.1, Build901 2021/07/19)

>  <Rbt.Parameter_File>
results/run_pocketvec/dock.prm

>  <Rbt.Receptor>
results/run_pocketvec/st_parameters.prm

>  <SCORE>
-11.4412

>  <SCORE.INTER>
-6.47348

>  <SCORE.INTER.CONST>
1

>  <SCORE.INTER.POLAR>
0

>  <SCORE.INTER.REPUL>
0

>  <SCORE.INTER.ROT>
5

>  <SCORE.INTER.VDW>
-16.8735

>  <SCORE.INTER.norm>
-0.231196

>  <SCORE.INTRA>
4.50084e-12

>  <SCORE.INTRA.DIHEDRAL>
1.66978e-12

>  <SCORE.INTRA.DIHEDRAL.0>
5.49115

>  <SCORE.INTRA.POLAR>
0

>  <SCORE.INTRA.POLAR.0>
0

>  <SCORE.INTRA.REPUL>
0

>  <SCORE.INTRA.REPUL.0>
0

>  <SCORE.INTRA.VDW>
3.66596e-12

>  <SCORE.INTRA.VDW.0>
2.15486

>  <SCORE.INTRA.norm>
1.60744e-13

>  <SCORE.RESTR>
0.640528

>  <SCORE.RESTR.CAVITY>
0.640528

>  <SCORE.RESTR.norm>
0.022876

>  <SCORE.SYSTEM>
-5.60826

>  <SCORE.SYSTEM.CONST>
0

>  <SCORE.SYSTEM.DIHEDRAL>
1.33767

>  <SCORE.SYSTEM.POLAR>
-1.74507

>  <SCORE.SYSTEM.VDW>
-0.343851

>  <SCORE.SYSTEM.norm>
-0.200295

>  <SCORE.heavy>
28

>  <SCORE.norm>
-0.408615

$$$$
InterBioScreen STOCK5S-70232
  rDOCK(R)          3D
libRbt.so/2021.1/901 2021/07/19
 29 32  0  0  0  0  0  0  0  0999 V2000
   -3.5386    0.9297   12.2397 C   0  0  0  0  0  0
   -3.3966   -3.2515   11.1532 S   0  0  0  0  0  0
   -4.3014    0.0607   13.0269 N   0  0  0  0  0  0
   -4.6084   -1.2385   12.4068 C   0  0  0  0  0  0
   -4.7217   -0.9681   10.8979 C   0  0  0  0  0  0
   -2.9457    2.0127   12.6112 N   0  0  0  0  0  0
   -3.4516    0.2970   10.5692 S   0  0  0  0  0  0
   -3.4638   -2.2425   12.6214 C   0  0  0  0  0  0
   -4.5091   -2.2779   10.1565 C   0  0  0  0  0  0
   -2.1740    2.8119   11.6749 C   0  0  0  0  0  0
   -4.7787    0.3352   14.3287 C   0  0  0  0  0  0
   -2.0655   -3.1592   10.5897 O   0  0  0  0  0  0
   -4.0274   -4.5238   11.4363 O   0  0  0  0  0  0
   -2.0880    2.4453   10.5064 O   0  0  0  0  0  0
   -5.0647   -0.6881   15.2533 C   0  0  0  0  0  0
   -5.0075    1.6549   14.7660 C   0  0  0  0  0  0
   -1.5774    3.9933   12.2613 C   0  0  0  0  0  0
   -5.7402    0.9030   16.9439 C   0  0  0  0  0  0
   -5.4786    1.9360   16.0540 C   0  0  0  0  0  0
   -5.5349   -0.4104   16.5428 C   0  0  0  0  0  0
   -0.7772    4.8084   11.2659 C   0  0  0  0  0  0
   -0.1448    6.0579   11.8794 C   0  0  0  0  0  0
   -6.2040    1.0470   18.2204 O   0  0  0  0  0  0
    1.1178    5.9830   12.4663 C   0  0  0  0  0  0
   -0.8594    7.2531   11.9175 C   0  0  0  0  0  0
   -6.4323    2.3763   18.6761 C   0  0  0  0  0  0
   -0.2966    8.3836   12.5104 C   0  0  0  0  0  0
    1.6790    7.1136   13.0594 C   0  0  0  0  0  0
    0.9721    8.3140   13.0797 C   0  0  0  0  0  0
  1  3  1  0  0  0
  1  6  2  0  0  0
  1  7  1  0  0  0
  2  8  1  0  0  0
  2  9  1  0  0  0
  2 12  2  0  0  0
  2 13  2  0  0  0
  3  4  1  0  0  0
  3 11  1  0  0  0
  4  5  1  0  0  0
  4  8  1  0  0  0
  5  7  1  0  0  0
  5  9  1  0  0  0
  6 10  1  0  0  0
 10 14  2  0  0  0
 10 17  1  0  0  0
 11 15  1  0  0  0
 11 16  2  0  0  0
 15 20  2  0  0  0
 16 19  1  0  0  0
 17 21  1  0  0  0
 18 19  2  0  0  0
 18 20  1  0  0  0
 18 23  1  0  0  0
 21 22  1  0  0  0
 22 24  1  0  0  0
 22 25  2  0  0  0
 23 26  1  0  0  0
 24 28  2  0  0  0
 25 27  1  0  0  0
 27 29  2  0  0  0
 28 29  1  0  0  0
M  END
>  <$CLUSTER>
445

>  <CHROM.0>
-174.07163534,172.05211318,77.20286692

>  <CHROM.1>
-3.13897291,1.35100191,12.87372815,-2.36882380,0.89858848,0.65102440

>  <INDEX>
385472

>  <Name>
InterBioScreen STOCK5S-70232

>  <RI>
-1.67511e+09

>  <Rbt.Current_Directory>
/aloy/home/acomajuncosa/PocketVec_v2/GitLab_repo

>  <Rbt.Executable>
rbdock ($Id: //depot/dev/client3/rdock/2021.1/src/exe/rbdock.cxx#4 $)

>  <Rbt.Library>
libRbt.so (2021.1, Build901 2021/07/19)

>  <Rbt.Parameter_File>
results/run_pocketvec/dock.prm

>  <Rbt.Receptor>
results/run_pocketvec/st_parameters.prm

>  <SCORE>
8.69951

>  <SCORE.INTER>
13.9836

>  <SCORE.INTER.CONST>
1

>  <SCORE.INTER.POLAR>
-0.55015

>  <SCORE.INTER.REPUL>
0.0761824

>  <SCORE.INTER.ROT>
6

>  <SCORE.INTER.VDW>
4.07317

>  <SCORE.INTER.norm>
0.482192

>  <SCORE.INTRA>
3.97726e-12

>  <SCORE.INTRA.DIHEDRAL>
6.94556e-13

>  <SCORE.INTRA.DIHEDRAL.0>
4.29765

>  <SCORE.INTRA.POLAR>
0

>  <SCORE.INTRA.POLAR.0>
0

>  <SCORE.INTRA.REPUL>
0

>  <SCORE.INTRA.REPUL.0>
0

>  <SCORE.INTRA.VDW>
3.62999e-12

>  <SCORE.INTRA.VDW.0>
4.42418

>  <SCORE.INTRA.norm>
1.37147e-13

>  <SCORE.RESTR>
0.0966985

>  <SCORE.RESTR.CAVITY>
0.0966985

>  <SCORE.RESTR.norm>
0.00333443

>  <SCORE.SYSTEM>
-5.38076

>  <SCORE.SYSTEM.CONST>
0

>  <SCORE.SYSTEM.DIHEDRAL>
1.77327

>  <SCORE.SYSTEM.POLAR>
-1.77248

>  <SCORE.SYSTEM.VDW>
-0.240952

>  <SCORE.SYSTEM.norm>
-0.185543

>  <SCORE.heavy>
29

>  <SCORE.norm>
0.299983

$$$$
Chembridge 5707467
  rDOCK(R)          3D
libRbt.so/2021.1/901 2021/07/19
 29 31  0  0  0  0  0  0  0  0999 V2000
   -4.7392    2.6133   10.8341 S   0  0  0  0  0  0
   -3.4251    1.5131   10.9379 N   0  0  0  0  0  0
    1.7632    3.8692   10.4098 C   0  0  0  0  0  0
    2.2504    4.6164   11.4592 N   0  0  0  0  0  0
   -5.9649    1.8625   10.6314 O   0  0  0  0  0  0
   -4.4065    3.7159    9.9529 O   0  0  0  0  0  0
   -4.7977    3.2564   12.4944 C   0  0  0  0  0  0
   -2.0956    2.0705   10.8389 C   0  0  0  0  0  0
    0.4261    3.2490   10.5901 C   0  0  0  0  0  0
    4.7924    6.7130   13.0882 C   0  0  0  0  0  0
    3.4251    5.3187   11.6368 C   0  0  0  0  0  0
    3.6228    5.9859   12.8541 C   0  0  0  0  0  0
    2.3735    3.7126    9.3573 O   0  0  0  0  0  0
    5.7773    6.7816   12.1075 C   0  0  0  0  0  0
   -1.3411    2.3609   11.9811 C   0  0  0  0  0  0
   -1.5929    2.3939    9.5744 C   0  0  0  0  0  0
   -0.3311    2.9769    9.4513 C   0  0  0  0  0  0
   -0.0792    2.9439   11.8535 C   0  0  0  0  0  0
    5.5902    6.1225   10.8939 C   0  0  0  0  0  0
    4.4201    5.3937   10.6565 C   0  0  0  0  0  0
   -3.5856    0.3011   11.7776 C   0  0  0  0  0  0
    4.9813    7.4140   14.3940 C   0  0  0  0  0  0
   -5.5723    2.6162   13.4735 C   0  0  0  0  0  0
   -4.0992    4.4307   12.8150 C   0  0  0  0  0  0
    7.0286    7.5580   12.3509 C   0  0  0  0  0  0
   -4.1664    4.9497   14.1089 C   0  0  0  0  0  0
   -5.6351    3.1418   14.7651 C   0  0  0  0  0  0
   -4.9337    4.3059   15.0815 C   0  0  0  0  0  0
    1.6267    4.6591   12.2523 H   0  0  0  0  0  0
  1  2  1  0  0  0
  1  5  2  0  0  0
  1  6  2  0  0  0
  1  7  1  0  0  0
  2  8  1  0  0  0
  2 21  1  0  0  0
  3  4  1  0  0  0
  3  9  1  0  0  0
  3 13  2  0  0  0
  4 11  1  0  0  0
  4 29  1  0  0  0
  7 23  1  0  0  0
  7 24  2  0  0  0
  8 15  1  0  0  0
  8 16  2  0  0  0
  9 17  2  0  0  0
  9 18  1  0  0  0
 10 12  2  0  0  0
 10 14  1  0  0  0
 10 22  1  0  0  0
 11 12  1  0  0  0
 11 20  2  0  0  0
 14 19  2  0  0  0
 14 25  1  0  0  0
 15 18  2  0  0  0
 16 17  1  0  0  0
 19 20  1  0  0  0
 23 27  2  0  0  0
 24 26  1  0  0  0
 26 28  2  0  0  0
 27 28  1  0  0  0
M  END
>  <$CLUSTER>
115

>  <CHROM.0>
-2.03917751,173.11210907,73.64954271

>  <CHROM.1>
-0.60906985,3.92417424,11.72889981,-2.95422782,0.30411203,1.00434147

>  <INDEX>
51140

>  <Name>
Chembridge 5707467

>  <RI>
-1.67511e+09

>  <Rbt.Current_Directory>
/aloy/home/acomajuncosa/PocketVec_v2/GitLab_repo

>  <Rbt.Executable>
rbdock ($Id: //depot/dev/client3/rdock/2021.1/src/exe/rbdock.cxx#4 $)

>  <Rbt.Library>
libRbt.so (2021.1, Build901 2021/07/19)

>  <Rbt.Parameter_File>
results/run_pocketvec/dock.prm

>  <Rbt.Receptor>
results/run_pocketvec/st_parameters.prm

>  <SCORE>
-16.8618

>  <SCORE.INTER>
-11.2626

>  <SCORE.INTER.CONST>
1

>  <SCORE.INTER.POLAR>
-0.281804

>  <SCORE.INTER.REPUL>
0

>  <SCORE.INTER.ROT>
5

>  <SCORE.INTER.VDW>
-20.7045

>  <SCORE.INTER.norm>
-0.402236

>  <SCORE.INTRA>
-2.24487e-12

>  <SCORE.INTRA.DIHEDRAL>
-6.85674e-13

>  <SCORE.INTRA.DIHEDRAL.0>
4.55993

>  <SCORE.INTRA.POLAR>
0

>  <SCORE.INTRA.POLAR.0>
0

>  <SCORE.INTRA.REPUL>
0

>  <SCORE.INTRA.REPUL.0>
0

>  <SCORE.INTRA.VDW>
-1.90203e-12

>  <SCORE.INTRA.VDW.0>
-2.01952

>  <SCORE.INTRA.norm>
-8.0174e-14

>  <SCORE.RESTR>
0

>  <SCORE.RESTR.CAVITY>
0

>  <SCORE.RESTR.norm>
0

>  <SCORE.SYSTEM>
-5.59914

>  <SCORE.SYSTEM.CONST>
0

>  <SCORE.SYSTEM.DIHEDRAL>
1.18726

>  <SCORE.SYSTEM.POLAR>
-1.74383

>  <SCORE.SYSTEM.VDW>
-0.263745

>  <SCORE.SYSTEM.norm>
-0.199969

>  <SCORE.heavy>
28

>  <SCORE.norm>
-0.602206

$$$$
Asinex ASN 04371767
  rDOCK(R)          3D
libRbt.so/2021.1/901 2021/07/19
 31 34  0  0  0  0  0  0  0  0999 V2000
   -4.5948    1.6124   12.3160 N   0  0  0  0  0  0
   -4.2987    0.5032   11.5211 C   0  0  0  0  0  0
   -4.0925    0.8784   10.2788 N   0  0  0  0  0  0
   -4.5407    2.6723   11.4238 C   0  0  0  0  0  0
   -4.2435    2.2330   10.2191 N   0  0  0  0  0  0
   -4.8649    1.4919   13.7126 C   0  0  0  0  0  0
   -4.2582   -0.7887   12.0954 C   0  0  0  0  0  0
   -4.8161    0.1868   14.2528 C   0  0  0  0  0  0
   -4.5021   -0.9617   13.3979 C   0  0  0  0  0  0
   -4.8107    4.3466   11.7776 S   0  0  0  0  0  0
   -5.1687    2.5644   14.5534 C   0  0  0  0  0  0
    1.8188    9.2383   11.4274 C   0  0  0  0  0  0
   -3.1151    5.0393    9.7358 C   0  0  0  0  0  0
   -5.0688   -0.0203   15.6153 C   0  0  0  0  0  0
    0.4576    9.0758   11.6529 N   0  0  0  0  0  0
   -2.1977    6.1144   10.2650 C   0  0  0  0  0  0
   -4.5742    5.1139   10.1598 C   0  0  0  0  0  0
    2.5627    8.5313   10.7559 O   0  0  0  0  0  0
   -2.6876    4.1334    9.0151 O   0  0  0  0  0  0
   -0.8439    6.0405    9.8772 C   0  0  0  0  0  0
   -2.6345    7.1349   11.0757 C   0  0  0  0  0  0
   -0.3927    8.0443   11.1506 C   0  0  0  0  0  0
   -5.3701    1.0571   16.4422 C   0  0  0  0  0  0
   -5.4189    2.3434   15.9119 C   0  0  0  0  0  0
   -1.7333    8.1053   11.5241 C   0  0  0  0  0  0
    0.0507    7.0125   10.3277 C   0  0  0  0  0  0
   -3.9349   -1.9552   11.2012 C   0  0  0  0  0  0
   -5.5965    0.7225   17.7549 O   0  0  0  0  0  0
    2.3479   10.4579   12.1405 C   0  0  0  0  0  0
   -5.9105    1.7869   18.6454 C   0  0  0  0  0  0
    0.0175    9.7688   12.2415 H   0  0  0  0  0  0
  1  2  1  0  0  0
  1  4  1  0  0  0
  1  6  1  0  0  0
  2  3  2  0  0  0
  2  7  1  0  0  0
  3  5  1  0  0  0
  4  5  2  0  0  0
  4 10  1  0  0  0
  6  8  2  0  0  0
  6 11  1  0  0  0
  7  9  2  0  0  0
  7 27  1  0  0  0
  8  9  1  0  0  0
  8 14  1  0  0  0
 10 17  1  0  0  0
 11 24  2  0  0  0
 12 15  1  0  0  0
 12 18  2  0  0  0
 12 29  1  0  0  0
 13 16  1  0  0  0
 13 17  1  0  0  0
 13 19  2  0  0  0
 14 23  2  0  0  0
 15 22  1  0  0  0
 15 31  1  0  0  0
 16 20  1  0  0  0
 16 21  2  0  0  0
 20 26  2  0  0  0
 21 25  1  0  0  0
 22 25  2  0  0  0
 22 26  1  0  0  0
 23 24  1  0  0  0
 23 28  1  0  0  0
 28 30  1  0  0  0
M  END
>  <$CLUSTER>
255

>  <CHROM.0>
0.29981586,-174.83285910,167.98303870

>  <CHROM.1>
-3.11960477,3.81854146,12.32910984,3.00336536,1.00005196,1.30375203

>  <INDEX>
138217

>  <Name>
Asinex ASN 04371767

>  <RI>
-1.67511e+09

>  <Rbt.Current_Directory>
/aloy/home/acomajuncosa/PocketVec_v2/GitLab_repo

>  <Rbt.Executable>
rbdock ($Id: //depot/dev/client3/rdock/2021.1/src/exe/rbdock.cxx#4 $)

>  <Rbt.Library>
libRbt.so (2021.1, Build901 2021/07/19)

>  <Rbt.Parameter_File>
results/run_pocketvec/dock.prm

>  <Rbt.Receptor>
results/run_pocketvec/st_parameters.prm

>  <SCORE>
-12.453

>  <SCORE.INTER>
-10.6114

>  <SCORE.INTER.CONST>
1

>  <SCORE.INTER.POLAR>
-2.32253

>  <SCORE.INTER.REPUL>
0.179964

>  <SCORE.INTER.ROT>
6

>  <SCORE.INTER.VDW>
-15.0147

>  <SCORE.INTER.norm>
-0.353715

>  <SCORE.INTRA>
-3.52518e-12

>  <SCORE.INTRA.DIHEDRAL>
-3.23741e-13

>  <SCORE.INTRA.DIHEDRAL.0>
1.44145

>  <SCORE.INTRA.POLAR>
0

>  <SCORE.INTRA.POLAR.0>
0

>  <SCORE.INTRA.REPUL>
0

>  <SCORE.INTRA.REPUL.0>
0

>  <SCORE.INTRA.VDW>
-3.36331e-12

>  <SCORE.INTRA.VDW.0>
1.40962

>  <SCORE.INTRA.norm>
-1.17506e-13

>  <SCORE.RESTR>
0

>  <SCORE.RESTR.CAVITY>
0

>  <SCORE.RESTR.norm>
0

>  <SCORE.SYSTEM>
-1.84158

>  <SCORE.SYSTEM.CONST>
0

>  <SCORE.SYSTEM.DIHEDRAL>
0.887761

>  <SCORE.SYSTEM.POLAR>
-0.994987

>  <SCORE.SYSTEM.REPUL>
6.3268e-05

>  <SCORE.SYSTEM.VDW>
1.09718

>  <SCORE.SYSTEM.norm>
-0.0613859

>  <SCORE.heavy>
30

>  <SCORE.norm>
-0.415101

$$$$
A-Synthese-Biotech EX-14747
  rDOCK(R)          3D
libRbt.so/2021.1/901 2021/07/19
 32 35  0  0  0  0  0  0  0  0999 V2000
   -2.9603    6.2034   14.0209 C   0  0  0  0  0  0
   -0.8120    8.9973   15.1490 C   0  0  0  0  0  0
   -2.5012    7.3128   14.7681 C   0  0  0  0  0  0
   -1.2816    7.8746   14.3923 O   0  0  0  0  0  0
   -2.0027    4.4921    9.6108 C   0  0  0  0  0  0
   -4.1904    5.5647   14.3395 C   0  0  0  0  0  0
   -0.8105    4.1401    8.7206 C   0  0  0  0  0  0
   -2.5016    5.2119   11.8206 N   0  0  0  0  0  0
    0.4775    9.4580   14.6202 C   0  0  0  0  0  0
   -2.0845    5.7578   12.9200 C   0  0  0  0  0  0
   -1.5483    4.8794   10.9428 N   0  0  0  0  0  0
   -1.4337    9.4577   16.0846 O   0  0  0  0  0  0
   -3.2822    7.8046   15.8195 C   0  0  0  0  0  0
   -3.1363    4.4382    9.2160 O   0  0  0  0  0  0
   -0.1931    3.7734    6.3939 N   0  0  0  0  0  0
   -4.9589    6.0938   15.4123 C   0  0  0  0  0  0
   -4.4984    7.2037   16.1299 C   0  0  0  0  0  0
    1.1193    8.8666   13.5395 C   0  0  0  0  0  0
    1.0526   10.5546   15.2694 C   0  0  0  0  0  0
    2.9246   10.4640   13.7445 C   0  0  0  0  0  0
   -1.1148    4.0885    7.3501 C   0  0  0  0  0  0
    2.2790   11.0548   14.8285 C   0  0  0  0  0  0
    2.3462    9.3713   13.1011 C   0  0  0  0  0  0
    4.4195   11.0850   13.2169 Cl  0  0  0  0  0  0
    0.4540    3.8389    9.1289 C   0  0  0  0  0  0
   -4.7069    4.4170   13.6893 C   0  0  0  0  0  0
    1.0591    3.4944    6.8366 C   0  0  0  0  0  0
   -6.1832    5.5075   15.7730 C   0  0  0  0  0  0
    1.4223    3.5133    8.1777 C   0  0  0  0  0  0
   -5.9243    3.8412   14.0606 C   0  0  0  0  0  0
   -6.6646    4.3886   15.0998 C   0  0  0  0  0  0
   -0.5688    4.8953   11.1877 H   0  0  0  0  0  0
  1  3  2  0  0  0
  1  6  1  0  0  0
  1 10  1  0  0  0
  2  4  1  0  0  0
  2  9  1  0  0  0
  2 12  2  0  0  0
  3  4  1  0  0  0
  3 13  1  0  0  0
  5  7  1  0  0  0
  5 11  1  0  0  0
  5 14  2  0  0  0
  6 16  2  0  0  0
  6 26  1  0  0  0
  7 21  2  0  0  0
  7 25  1  0  0  0
  8 10  2  0  0  0
  8 11  1  0  0  0
  9 18  1  0  0  0
  9 19  2  0  0  0
 11 32  1  0  0  0
 13 17  2  0  0  0
 15 21  1  0  0  0
 15 27  2  0  0  0
 16 17  1  0  0  0
 16 28  1  0  0  0
 18 23  2  0  0  0
 19 22  1  0  0  0
 20 22  2  0  0  0
 20 23  1  0  0  0
 20 24  1  0  0  0
 25 29  2  0  0  0
 26 30  2  0  0  0
 27 29  1  0  0  0
 28 31  2  0  0  0
 30 31  1  0  0  0
M  END
>  <$CLUSTER>
311

>  <CHROM.0>
3.51880022,171.46998819,73.71993046

>  <CHROM.1>
-1.15623585,6.77835301,12.71409365,2.25626155,-0.51806170,-2.21114174

>  <INDEX>
197938

>  <Name>
A-Synthese-Biotech EX-14747

>  <RI>
-1.67511e+09

>  <Rbt.Current_Directory>
/aloy/home/acomajuncosa/PocketVec_v2/GitLab_repo

>  <Rbt.Executable>
rbdock ($Id: //depot/dev/client3/rdock/2021.1/src/exe/rbdock.cxx#4 $)

>  <Rbt.Library>
libRbt.so (2021.1, Build901 2021/07/19)

>  <Rbt.Parameter_File>
results/run_pocketvec/dock.prm

>  <Rbt.Receptor>
results/run_pocketvec/st_parameters.prm

>  <SCORE>
-9.83841

>  <SCORE.INTER>
-4.23112

>  <SCORE.INTER.CONST>
1

>  <SCORE.INTER.POLAR>
0

>  <SCORE.INTER.REPUL>
0.00876825

>  <SCORE.INTER.ROT>
6

>  <SCORE.INTER.VDW>
-15.675

>  <SCORE.INTER.norm>
-0.136488

>  <SCORE.INTRA>
-4.20997e-13

>  <SCORE.INTRA.DIHEDRAL>
4.76064e-13

>  <SCORE.INTRA.DIHEDRAL.0>
4.73351

>  <SCORE.INTRA.POLAR>
0

>  <SCORE.INTRA.POLAR.0>
0

>  <SCORE.INTRA.REPUL>
0

>  <SCORE.INTRA.REPUL.0>
0

>  <SCORE.INTRA.VDW>
-6.59028e-13

>  <SCORE.INTRA.VDW.0>
2.1922

>  <SCORE.INTRA.norm>
-1.35805e-14

>  <SCORE.RESTR>
0

>  <SCORE.RESTR.CAVITY>
0

>  <SCORE.RESTR.norm>
0

>  <SCORE.SYSTEM>
-5.60729

>  <SCORE.SYSTEM.CONST>
0

>  <SCORE.SYSTEM.DIHEDRAL>
1.31814

>  <SCORE.SYSTEM.POLAR>
-1.74441

>  <SCORE.SYSTEM.VDW>
-0.335363

>  <SCORE.SYSTEM.norm>
-0.18088

>  <SCORE.heavy>
31

>  <SCORE.norm>
-0.317368

$$$$
InterBioScreen STOCK3S-81928
  rDOCK(R)          3D
libRbt.so/2021.1/901 2021/07/19
 32 35  0  0  0  0  0  0  0  0999 V2000
   -5.3207    4.4322   13.8274 N   0  0  0  0  0  0
   -4.4916    4.0943   12.7712 C   0  0  0  0  0  0
   -5.8363    5.6949   13.5667 C   0  0  0  0  0  0
   -5.3894    6.1459   12.3333 C   0  0  0  0  0  0
   -4.5343    5.1245   11.8369 C   0  0  0  0  0  0
   -3.7337    2.9838   12.6493 N   0  0  0  0  0  0
   -3.8166    5.0644   10.6835 N   0  0  0  0  0  0
   -5.6233    3.7452   14.9758 N   0  0  0  0  0  0
   -5.7543    7.4279   11.7351 C   0  0  0  0  0  0
   -3.0323    2.9511   11.5009 C   0  0  0  0  0  0
   -3.0745    3.9509   10.5519 C   0  0  0  0  0  0
   -5.5262    2.4613   14.9581 C   0  0  0  0  0  0
   -6.6561    6.2770   14.4662 N   0  0  0  0  0  0
   -6.5067    8.2285   12.2855 O   0  0  0  0  0  0
   -6.5046    1.4400   18.4330 N   0  0  0  0  0  0
   -5.8148    1.6128   16.1149 C   0  0  0  0  0  0
   -5.1952    7.6812   10.5016 N   0  0  0  0  0  0
   -6.2195    2.1745   17.3189 C   0  0  0  0  0  0
   -6.3719    0.0921   18.3150 C   0  0  0  0  0  0
   -2.2839    3.8231    9.3657 C   0  0  0  0  0  0
   -2.2069    1.8055   11.2665 C   0  0  0  0  0  0
   -5.6889    0.2345   16.0236 C   0  0  0  0  0  0
   -5.4011    8.8645    9.7116 C   0  0  0  0  0  0
   -6.6527    8.7532    8.8599 C   0  0  0  0  0  0
   -6.8792    9.9931    8.0075 C   0  0  0  0  0  0
   -5.9726   -0.5456   17.1453 C   0  0  0  0  0  0
   -8.1316    9.8769    7.1580 C   0  0  0  0  0  0
   -1.4825    2.7017    9.1516 C   0  0  0  0  0  0
   -1.4442    1.6903   10.1060 C   0  0  0  0  0  0
   -7.0454    7.1898   14.2776 H   0  0  0  0  0  0
   -6.8809    5.8001   15.3273 H   0  0  0  0  0  0
   -4.5859    6.9725   10.1178 H   0  0  0  0  0  0
  1  2  1  0  0  0
  1  3  1  0  0  0
  1  8  1  0  0  0
  2  5  2  0  0  0
  2  6  1  0  0  0
  3  4  2  0  0  0
  3 13  1  0  0  0
  4  5  1  0  0  0
  4  9  1  0  0  0
  5  7  1  0  0  0
  6 10  2  0  0  0
  7 11  2  0  0  0
  8 12  2  0  0  0
  9 14  2  0  0  0
  9 17  1  0  0  0
 10 11  1  0  0  0
 10 21  1  0  0  0
 11 20  1  0  0  0
 12 16  1  0  0  0
 13 30  1  0  0  0
 13 31  1  0  0  0
 15 18  2  0  0  0
 15 19  1  0  0  0
 16 18  1  0  0  0
 16 22  2  0  0  0
 17 23  1  0  0  0
 17 32  1  0  0  0
 19 26  2  0  0  0
 20 28  2  0  0  0
 21 29  2  0  0  0
 22 26  1  0  0  0
 23 24  1  0  0  0
 24 25  1  0  0  0
 25 27  1  0  0  0
 28 29  1  0  0  0
M  END
>  <$CLUSTER>
529

>  <CHROM.0>
171.06001827,171.24400903,167.97507961

>  <CHROM.1>
-5.07570248,4.55008627,12.57222469,1.53148055,-0.78747931,2.31366139

>  <INDEX>
345754

>  <Name>
InterBioScreen STOCK3S-81928

>  <RI>
-1.67511e+09

>  <Rbt.Current_Directory>
/aloy/home/acomajuncosa/PocketVec_v2/GitLab_repo

>  <Rbt.Executable>
rbdock ($Id: //depot/dev/client3/rdock/2021.1/src/exe/rbdock.cxx#4 $)

>  <Rbt.Library>
libRbt.so (2021.1, Build901 2021/07/19)

>  <Rbt.Parameter_File>
results/run_pocketvec/dock.prm

>  <Rbt.Receptor>
results/run_pocketvec/st_parameters.prm

>  <SCORE>
-12.6483

>  <SCORE.INTER>
-10.3241

>  <SCORE.INTER.CONST>
1

>  <SCORE.INTER.POLAR>
0

>  <SCORE.INTER.REPUL>
0

>  <SCORE.INTER.ROT>
6

>  <SCORE.INTER.VDW>
-21.7241

>  <SCORE.INTER.norm>
-0.356005

>  <SCORE.INTRA>
-1.17137e-12

>  <SCORE.INTRA.DIHEDRAL>
-7.30971e-13

>  <SCORE.INTRA.DIHEDRAL.0>
2.34631

>  <SCORE.INTRA.POLAR>
-2.22267e-13

>  <SCORE.INTRA.POLAR.0>
-0.761434

>  <SCORE.INTRA.REPUL>
0

>  <SCORE.INTRA.REPUL.0>
0

>  <SCORE.INTRA.VDW>
-5.01821e-14

>  <SCORE.INTRA.VDW.0>
-1.77711

>  <SCORE.INTRA.norm>
-4.03922e-14

>  <SCORE.RESTR>
0

>  <SCORE.RESTR.CAVITY>
0

>  <SCORE.RESTR.norm>
0

>  <SCORE.SYSTEM>
-2.32411

>  <SCORE.SYSTEM.CONST>
0

>  <SCORE.SYSTEM.DIHEDRAL>
1.25777

>  <SCORE.SYSTEM.POLAR>
-0.994987

>  <SCORE.SYSTEM.REPUL>
7.61762e-06

>  <SCORE.SYSTEM.VDW>
0.429926

>  <SCORE.SYSTEM.norm>
-0.0801417

>  <SCORE.heavy>
29

>  <SCORE.norm>
-0.436147

$$$$
Nanosyn NS61821
  rDOCK(R)          3D
libRbt.so/2021.1/901 2021/07/19
 31 33  0  0  0  0  0  0  0  0999 V2000
    7.0277    4.9668   12.0476 S   0  0  0  0  0  0
    7.1901    5.1875   10.3923 N   0  0  0  0  0  0
    6.2617    4.5014    9.6115 C   0  0  0  0  0  0
    1.5513    8.9724   13.6659 C   0  0  0  0  0  0
    6.4976    3.2057    9.3555 N   0  0  0  0  0  0
    5.1978    5.2183    9.2246 N   0  0  0  0  0  0
    0.0762    9.1738   13.9169 C   0  0  0  0  0  0
    5.4862    5.8076   12.4170 C   0  0  0  0  0  0
    1.8286    7.6510   13.3388 N   0  0  0  0  0  0
    8.1050    5.7185   12.6787 O   0  0  0  0  0  0
    6.8774    3.5535   12.3592 O   0  0  0  0  0  0
    5.5532    2.5856    8.6122 C   0  0  0  0  0  0
    4.2885    4.5475    8.4824 C   0  0  0  0  0  0
   -0.4100   10.5045   13.7345 C   0  0  0  0  0  0
   -0.7841    8.1984   14.3624 C   0  0  0  0  0  0
    2.3374    9.9091   13.7596 O   0  0  0  0  0  0
    4.4171    3.2151    8.1429 C   0  0  0  0  0  0
   -2.1306    8.4856   14.5956 C   0  0  0  0  0  0
   -1.7577   10.7861   13.9695 C   0  0  0  0  0  0
    5.5005    7.1630   12.7159 C   0  0  0  0  0  0
    4.3097    5.0671   12.4274 C   0  0  0  0  0  0
    3.1045    7.0743   13.0319 C   0  0  0  0  0  0
   -2.6173    9.7775   14.3966 C   0  0  0  0  0  0
    3.1097    5.7103   12.7345 C   0  0  0  0  0  0
    4.2967    7.8000   13.0232 C   0  0  0  0  0  0
    5.7779    1.1366    8.2945 C   0  0  0  0  0  0
    3.0557    5.3444    8.0055 C   0  0  0  0  0  0
   -3.0501    7.4026   15.0612 C   0  0  0  0  0  0
   -2.2797   12.1715   13.7614 C   0  0  0  0  0  0
    7.9078    5.7746    9.9907 H   0  0  0  0  0  0
    1.0383    7.0227   13.3140 H   0  0  0  0  0  0
  1  2  1  0  0  0
  1  8  1  0  0  0
  1 10  2  0  0  0
  1 11  2  0  0  0
  2  3  1  0  0  0
  2 30  1  0  0  0
  3  5  2  0  0  0
  3  6  1  0  0  0
  4  7  1  0  0  0
  4  9  1  0  0  0
  4 16  2  0  0  0
  5 12  1  0  0  0
  6 13  2  0  0  0
  7 14  1  0  0  0
  7 15  2  0  0  0
  8 20  1  0  0  0
  8 21  2  0  0  0
  9 22  1  0  0  0
  9 31  1  0  0  0
 12 17  2  0  0  0
 12 26  1  0  0  0
 13 17  1  0  0  0
 13 27  1  0  0  0
 14 19  2  0  0  0
 15 18  1  0  0  0
 18 23  2  0  0  0
 18 28  1  0  0  0
 19 23  1  0  0  0
 19 29  1  0  0  0
 20 25  2  0  0  0
 21 24  1  0  0  0
 22 24  2  0  0  0
 22 25  1  0  0  0
M  END
>  <$CLUSTER>
997

>  <CHROM.0>
3.49139860,170.72946262,75.78643396

>  <CHROM.1>
3.30269224,6.48058277,11.99602949,-0.73426244,-0.21030558,0.84918384

>  <INDEX>
566297

>  <Name>
Nanosyn NS61821

>  <RI>
-1.67511e+09

>  <Rbt.Current_Directory>
/aloy/home/acomajuncosa/PocketVec_v2/GitLab_repo

>  <Rbt.Executable>
rbdock ($Id: //depot/dev/client3/rdock/2021.1/src/exe/rbdock.cxx#4 $)

>  <Rbt.Library>
libRbt.so (2021.1, Build901 2021/07/19)

>  <Rbt.Parameter_File>
results/run_pocketvec/dock.prm

>  <Rbt.Receptor>
results/run_pocketvec/st_parameters.prm

>  <SCORE>
-14.9121

>  <SCORE.INTER>
-9.46525

>  <SCORE.INTER.CONST>
1

>  <SCORE.INTER.POLAR>
0

>  <SCORE.INTER.REPUL>
0

>  <SCORE.INTER.ROT>
5

>  <SCORE.INTER.VDW>
-19.8653

>  <SCORE.INTER.norm>
-0.326388

>  <SCORE.INTRA>
2.9754e-14

>  <SCORE.INTRA.DIHEDRAL>
-9.166e-13

>  <SCORE.INTRA.DIHEDRAL.0>
17.4362

>  <SCORE.INTRA.POLAR>
0

>  <SCORE.INTRA.POLAR.0>
0

>  <SCORE.INTRA.REPUL>
0

>  <SCORE.INTRA.REPUL.0>
0

>  <SCORE.INTRA.VDW>
4.88054e-13

>  <SCORE.INTRA.VDW.0>
-2.74645

>  <SCORE.INTRA.norm>
1.026e-15

>  <SCORE.RESTR>
0.13669

>  <SCORE.RESTR.CAVITY>
0.13669

>  <SCORE.RESTR.norm>
0.00471345

>  <SCORE.SYSTEM>
-5.58357

>  <SCORE.SYSTEM.CONST>
0

>  <SCORE.SYSTEM.DIHEDRAL>
1.64965

>  <SCORE.SYSTEM.POLAR>
-1.76122

>  <SCORE.SYSTEM.VDW>
-0.420261

>  <SCORE.SYSTEM.norm>
-0.192537

>  <SCORE.heavy>
29

>  <SCORE.norm>
-0.514212

$$$$
Asinex ASN 05317597
  rDOCK(R)          3D
libRbt.so/2021.1/901 2021/07/19
 31 33  0  0  0  0  0  0  0  0999 V2000
   -3.1696    4.1514    9.4303 C   0  0  0  0  0  0
   -3.5899    3.1476   11.5897 C   0  0  0  0  0  0
   -2.5108    2.6133   11.0569 N   0  0  0  0  0  0
   -4.3588    4.3491   10.6452 S   0  0  0  0  0  0
   -2.2699    3.1861    9.8244 C   0  0  0  0  0  0
   -3.1882    4.9322    8.1940 C   0  0  0  0  0  0
   -4.0758    2.7663   12.8293 N   0  0  0  0  0  0
   -6.1625    0.9023   18.6124 N   0  3  0  0  0  0
   -5.1986    3.2650   13.4758 C   0  0  0  0  0  0
   -4.2184    5.8418    8.0623 N   0  0  0  0  0  0
   -5.9294    1.4964   17.3389 C   0  0  0  0  0  0
   -5.7475   -0.2407   18.8685 O   0  5  0  0  0  0
   -5.3936    2.5923   14.8117 C   0  0  0  0  0  0
   -6.7961    1.6023   19.4205 O   0  0  0  0  0  0
   -2.3451    4.8081    7.3055 O   0  0  0  0  0  0
   -5.9811    4.1287   13.0917 O   0  0  0  0  0  0
   -6.3882    2.7775   17.0382 C   0  0  0  0  0  0
   -5.2235    0.7685   16.3823 C   0  0  0  0  0  0
   -6.1398    3.3337   15.7817 C   0  0  0  0  0  0
   -4.9705    1.3215   15.1234 C   0  0  0  0  0  0
   -4.5769    6.7450    7.0686 C   0  0  0  0  0  0
   -5.3746    8.5978    5.1125 C   0  0  0  0  0  0
   -1.0761    2.6979    9.0705 C   0  0  0  0  0  0
   -3.8429    6.8873    5.8878 C   0  0  0  0  0  0
   -5.7156    7.5420    7.2573 C   0  0  0  0  0  0
   -4.2421    7.8116    4.9155 C   0  0  0  0  0  0
   -6.1120    8.4629    6.2856 C   0  0  0  0  0  0
   -5.6591    9.4623    4.0845 O   0  0  0  0  0  0
   -6.8065   10.2895    4.2395 C   0  0  0  0  0  0
   -3.5573    2.0480   13.3148 H   0  0  0  0  0  0
   -4.8436    5.8530    8.8558 H   0  0  0  0  0  0
  1  4  1  0  0  0
  1  5  2  0  0  0
  1  6  1  0  0  0
  2  3  2  0  0  0
  2  4  1  0  0  0
  2  7  1  0  0  0
  3  5  1  0  0  0
  5 23  1  0  0  0
  6 10  1  0  0  0
  6 15  2  0  0  0
  7  9  1  0  0  0
  7 30  1  0  0  0
  8 11  1  0  0  0
  8 12  1  0  0  0
  8 14  2  0  0  0
  9 13  1  0  0  0
  9 16  2  0  0  0
 10 21  1  0  0  0
 10 31  1  0  0  0
 11 17  2  0  0  0
 11 18  1  0  0  0
 13 19  2  0  0  0
 13 20  1  0  0  0
 17 19  1  0  0  0
 18 20  2  0  0  0
 21 24  2  0  0  0
 21 25  1  0  0  0
 22 26  2  0  0  0
 22 27  1  0  0  0
 22 28  1  0  0  0
 24 26  1  0  0  0
 25 27  2  0  0  0
 28 29  1  0  0  0
M  END
>  <$CLUSTER>
227

>  <CHROM.0>
0.20916050,171.64124431,74.76197862

>  <CHROM.1>
-4.72480084,4.34730682,11.13879352,-1.48166326,-0.63537544,2.12851758

>  <INDEX>
146043

>  <Name>
Asinex ASN 05317597

>  <RI>
-1.67511e+09

>  <Rbt.Current_Directory>
/aloy/home/acomajuncosa/PocketVec_v2/GitLab_repo

>  <Rbt.Executable>
rbdock ($Id: //depot/dev/client3/rdock/2021.1/src/exe/rbdock.cxx#4 $)

>  <Rbt.Library>
libRbt.so (2021.1, Build901 2021/07/19)

>  <Rbt.Parameter_File>
results/run_pocketvec/dock.prm

>  <Rbt.Receptor>
results/run_pocketvec/st_parameters.prm

>  <SCORE>
-14.9938

>  <SCORE.INTER>
-9.3999

>  <SCORE.INTER.CONST>
1

>  <SCORE.INTER.POLAR>
-0.121569

>  <SCORE.INTER.REPUL>
0

>  <SCORE.INTER.ROT>
5

>  <SCORE.INTER.VDW>
-19.3866

>  <SCORE.INTER.norm>
-0.324134

>  <SCORE.INTRA>
-5.37126e-13

>  <SCORE.INTRA.DIHEDRAL>
9.37028e-14

>  <SCORE.INTRA.DIHEDRAL.0>
2.41904

>  <SCORE.INTRA.POLAR>
0

>  <SCORE.INTRA.POLAR.0>
0

>  <SCORE.INTRA.REPUL>
0

>  <SCORE.INTRA.REPUL.0>
0

>  <SCORE.INTRA.VDW>
-5.83977e-13

>  <SCORE.INTRA.VDW.0>
2.44342

>  <SCORE.INTRA.norm>
-1.85216e-14

>  <SCORE.RESTR>
0

>  <SCORE.RESTR.CAVITY>
0

>  <SCORE.RESTR.norm>
0

>  <SCORE.SYSTEM>
-5.59387

>  <SCORE.SYSTEM.CONST>
0

>  <SCORE.SYSTEM.DIHEDRAL>
1.4246

>  <SCORE.SYSTEM.POLAR>
-1.75294

>  <SCORE.SYSTEM.VDW>
-0.346176

>  <SCORE.SYSTEM.norm>
-0.192892

>  <SCORE.heavy>
29

>  <SCORE.norm>
-0.517026

$$$$
Chem T&I AMSACS-11579
  rDOCK(R)          3D
libRbt.so/2021.1/901 2021/07/19
 21 22  0  0  0  0  0  0  0  0999 V2000
   -3.7963    4.5890    9.4680 S   0  0  0  0  0  0
   -4.2413    0.6095   15.3138 N   0  0  0  0  0  0
   -4.8041    1.8285   15.2089 N   0  0  0  0  0  0
   -5.9438    1.9708   15.9485 C   0  0  0  0  0  0
   -6.1377    0.7641   16.5757 C   0  0  0  0  0  0
   -5.0603   -0.0355   16.1488 C   0  0  0  0  0  0
   -4.5524    6.1297    9.9543 C   0  0  0  0  0  0
   -4.3739    4.2275    8.1781 O   0  0  0  0  0  0
   -2.3501    4.7634    9.5837 O   0  0  0  0  0  0
   -4.3495    3.5673   10.6416 N   0  0  0  0  0  0
   -3.8612    6.9785   10.8179 C   0  0  0  0  0  0
   -5.8069    6.4607    9.4589 C   0  0  0  0  0  0
   -7.4102    0.2677   17.6683 Br  0  0  0  0  0  0
   -6.3894    7.6687    9.8424 C   0  0  0  0  0  0
   -4.4519    8.1839   11.1951 C   0  0  0  0  0  0
   -5.7143    8.5287   10.7097 C   0  0  0  0  0  0
   -4.1909    2.8358   14.3698 C   0  0  0  0  0  0
   -4.5876    2.6880   12.9115 C   0  0  0  0  0  0
   -3.9425    3.7318   12.0302 C   0  0  0  0  0  0
   -6.3377    9.8224   11.1209 C   0  0  0  0  0  0
   -4.0690    2.6363   10.3676 H   0  0  0  0  0  0
  1  7  1  0  0  0
  1  8  2  0  0  0
  1  9  2  0  0  0
  1 10  1  0  0  0
  2  3  1  0  0  0
  2  6  2  0  0  0
  3  4  1  0  0  0
  3 17  1  0  0  0
  4  5  2  0  0  0
  5  6  1  0  0  0
  5 13  1  0  0  0
  7 11  1  0  0  0
  7 12  2  0  0  0
 10 19  1  0  0  0
 10 21  1  0  0  0
 11 15  2  0  0  0
 12 14  1  0  0  0
 14 16  2  0  0  0
 15 16  1  0  0  0
 16 20  1  0  0  0
 17 18  1  0  0  0
 18 19  1  0  0  0
M  END
>  <$CLUSTER>
789

>  <CHROM.0>
177.02232963,172.01861813,71.18676986

>  <CHROM.1>
-5.28715814,3.54058329,13.14199881,-1.23350409,-0.88142970,2.53442310

>  <INDEX>
518299

>  <Name>
Chem T&I AMSACS-11579

>  <RI>
-1.67511e+09

>  <Rbt.Current_Directory>
/aloy/home/acomajuncosa/PocketVec_v2/GitLab_repo

>  <Rbt.Executable>
rbdock ($Id: //depot/dev/client3/rdock/2021.1/src/exe/rbdock.cxx#4 $)

>  <Rbt.Library>
libRbt.so (2021.1, Build901 2021/07/19)

>  <Rbt.Parameter_File>
results/run_pocketvec/dock.prm

>  <Rbt.Receptor>
results/run_pocketvec/st_parameters.prm

>  <SCORE>
-12.0187

>  <SCORE.INTER>
-6.58042

>  <SCORE.INTER.CONST>
1

>  <SCORE.INTER.POLAR>
-0.694872

>  <SCORE.INTER.REPUL>
0.290412

>  <SCORE.INTER.ROT>
6

>  <SCORE.INTER.VDW>
-17.0699

>  <SCORE.INTER.norm>
-0.329021

>  <SCORE.INTRA>
-7.04103e-13

>  <SCORE.INTRA.DIHEDRAL>
-2.35278e-12

>  <SCORE.INTRA.DIHEDRAL.0>
3.73324

>  <SCORE.INTRA.POLAR>
0

>  <SCORE.INTRA.POLAR.0>
0

>  <SCORE.INTRA.REPUL>
0

>  <SCORE.INTRA.REPUL.0>
0

>  <SCORE.INTRA.VDW>
4.72289e-13

>  <SCORE.INTRA.VDW.0>
-1.64753

>  <SCORE.INTRA.norm>
-3.52052e-14

>  <SCORE.RESTR>
0

>  <SCORE.RESTR.CAVITY>
0

>  <SCORE.RESTR.norm>
0

>  <SCORE.SYSTEM>
-5.43829

>  <SCORE.SYSTEM.CONST>
0

>  <SCORE.SYSTEM.DIHEDRAL>
0.994007

>  <SCORE.SYSTEM.POLAR>
-1.72327

>  <SCORE.SYSTEM.VDW>
-0.0761625

>  <SCORE.SYSTEM.norm>
-0.271914

>  <SCORE.heavy>
20

>  <SCORE.norm>
-0.600936

$$$$
Bionet 8K-348S
  rDOCK(R)          3D
libRbt.so/2021.1/901 2021/07/19
 29 31  0  0  0  0  0  0  0  0999 V2000
   -4.1603    4.4895   10.3084 S   0  0  0  0  0  0
   -4.0087    3.2382   11.4808 N   0  0  0  0  0  0
   -3.2789    3.5429   12.7475 C   0  0  0  0  0  0
   -3.9127    2.8055   13.9170 C   0  0  0  0  0  0
   -5.5163    3.2818   15.8153 C   0  0  0  0  0  0
   -4.5939    5.7051   10.9723 O   0  0  0  0  0  0
   -4.8733    4.0049    9.1408 O   0  0  0  0  0  0
   -2.4616    4.7362    9.8361 C   0  0  0  0  0  0
   -4.7517    3.5624   14.6794 N   0  0  0  0  0  0
   -5.5303    2.0159   16.4085 C   0  0  0  0  0  0
   -6.2967    4.3020   16.3816 C   0  0  0  0  0  0
   -3.9305    1.8882   10.9653 C   0  0  0  0  0  0
   -7.0735    4.0606   17.5152 C   0  0  0  0  0  0
   -6.3107    1.7774   17.5449 C   0  0  0  0  0  0
   -7.0807    2.7975   18.0978 C   0  0  0  0  0  0
   -3.6996    1.6189   14.1749 O   0  0  0  0  0  0
   -6.3265    0.2322   18.2648 Cl  0  0  0  0  0  0
   -8.0078    5.3237   18.1723 Cl  0  0  0  0  0  0
   -1.6605    5.6551   10.5301 C   0  0  0  0  0  0
   -1.9329    4.0421    8.7352 C   0  0  0  0  0  0
   -2.7025    1.2666   10.7191 C   0  0  0  0  0  0
   -5.1208    1.2284   10.6366 C   0  0  0  0  0  0
   -0.6104    4.2580    8.3451 C   0  0  0  0  0  0
   -5.0816   -0.0567   10.0956 C   0  0  0  0  0  0
   -2.6676   -0.0194   10.1772 C   0  0  0  0  0  0
   -0.3379    5.8653   10.1348 C   0  0  0  0  0  0
   -3.8553   -0.6809    9.8689 C   0  0  0  0  0  0
    0.1851    5.1675    9.0446 C   0  0  0  0  0  0
   -4.8386    4.5162   14.3599 H   0  0  0  0  0  0
  1  2  1  0  0  0
  1  6  2  0  0  0
  1  7  2  0  0  0
  1  8  1  0  0  0
  2  3  1  0  0  0
  2 12  1  0  0  0
  3  4  1  0  0  0
  4  9  1  0  0  0
  4 16  2  0  0  0
  5  9  1  0  0  0
  5 10  1  0  0  0
  5 11  2  0  0  0
  8 19  1  0  0  0
  8 20  2  0  0  0
  9 29  1  0  0  0
 10 14  2  0  0  0
 11 13  1  0  0  0
 12 21  1  0  0  0
 12 22  2  0  0  0
 13 15  2  0  0  0
 13 18  1  0  0  0
 14 15  1  0  0  0
 14 17  1  0  0  0
 19 26  2  0  0  0
 20 23  1  0  0  0
 21 25  2  0  0  0
 22 24  1  0  0  0
 23 28  2  0  0  0
 24 27  2  0  0  0
 25 27  1  0  0  0
 26 28  1  0  0  0
M  END
>  <$CLUSTER>
148

>  <CHROM.0>
-0.38477708,171.69091896,73.63568392

>  <CHROM.1>
-4.43898276,3.12659311,13.09538502,-0.00976418,1.07648368,0.11385889

>  <INDEX>
106563

>  <Name>
Bionet 8K-348S

>  <RI>
-1.67511e+09

>  <Rbt.Current_Directory>
/aloy/home/acomajuncosa/PocketVec_v2/GitLab_repo

>  <Rbt.Executable>
rbdock ($Id: //depot/dev/client3/rdock/2021.1/src/exe/rbdock.cxx#4 $)

>  <Rbt.Library>
libRbt.so (2021.1, Build901 2021/07/19)

>  <Rbt.Parameter_File>
results/run_pocketvec/dock.prm

>  <Rbt.Receptor>
results/run_pocketvec/st_parameters.prm

>  <SCORE>
-1.25738

>  <SCORE.INTER>
4.35074

>  <SCORE.INTER.CONST>
1

>  <SCORE.INTER.POLAR>
-0.264598

>  <SCORE.INTER.REPUL>
0

>  <SCORE.INTER.ROT>
6

>  <SCORE.INTER.VDW>
-6.14963

>  <SCORE.INTER.norm>
0.155383

>  <SCORE.INTRA>
-5.37348e-14

>  <SCORE.INTRA.DIHEDRAL>
-2.24709e-13

>  <SCORE.INTRA.DIHEDRAL.0>
4.36115

>  <SCORE.INTRA.POLAR>
0

>  <SCORE.INTRA.POLAR.0>
0

>  <SCORE.INTRA.REPUL>
0

>  <SCORE.INTRA.REPUL.0>
0

>  <SCORE.INTRA.VDW>
5.86198e-14

>  <SCORE.INTRA.VDW.0>
-4.04314

>  <SCORE.INTRA.norm>
-1.9191e-15

>  <SCORE.RESTR>
0

>  <SCORE.RESTR.CAVITY>
0

>  <SCORE.RESTR.norm>
0

>  <SCORE.SYSTEM>
-5.60812

>  <SCORE.SYSTEM.CONST>
0

>  <SCORE.SYSTEM.DIHEDRAL>
1.27919

>  <SCORE.SYSTEM.POLAR>
-1.74372

>  <SCORE.SYSTEM.VDW>
-0.319077

>  <SCORE.SYSTEM.norm>
-0.20029

>  <SCORE.heavy>
28

>  <SCORE.norm>
-0.0449065

$$$$
InterBioScreen STOCK5S-22526
  rDOCK(R)          3D
libRbt.so/2021.1/901 2021/07/19
 27 29  0  0  0  0  0  0  0  0999 V2000
   -5.5641    4.7747   13.7097 N   0  0  0  0  0  0
   -5.0592    3.5099   13.6377 C   0  0  0  0  0  0
   -2.0533   15.2873   11.6353 N   0  3  0  0  0  0
   -4.2942    3.2482   12.5746 N   0  0  0  0  0  0
   -5.0844    5.2940   12.6210 C   0  0  0  0  0  0
   -4.3011    4.4644   11.8829 O   0  0  0  0  0  0
   -2.3474   13.8734   11.8665 C   0  0  0  0  0  0
   -5.3528    2.5171   14.6919 C   0  0  0  0  0  0
   -4.2432    9.0386   12.0555 C   0  0  0  0  0  0
   -1.0411   15.7823   12.1605 O   0  5  0  0  0  0
   -2.8395   15.9279   10.9179 O   0  0  0  0  0  0
   -3.1972    9.8295   12.5139 N   0  0  0  0  0  0
   -5.1783    9.3655   11.3321 O   0  0  0  0  0  0
   -1.5093   13.1648   12.6389 C   0  0  0  0  0  0
   -3.5805   13.3591   11.1991 C   0  0  0  0  0  0
   -6.1666    2.8622   15.7817 C   0  0  0  0  0  0
   -4.8316    1.2164   14.6262 C   0  0  0  0  0  0
   -2.9770   11.2019   12.2501 C   0  0  0  0  0  0
   -5.2331    6.6991   12.1002 C   0  0  0  0  0  0
   -4.1173    7.6233   12.5636 C   0  0  0  0  0  0
   -5.9259    0.6399   16.7042 C   0  0  0  0  0  0
   -1.8417   11.7854   12.8313 C   0  0  0  0  0  0
   -3.8099   11.9956   11.4546 C   0  0  0  0  0  0
   -6.4491    1.9285   16.7812 C   0  0  0  0  0  0
   -5.1165    0.2841   15.6288 C   0  0  0  0  0  0
   -6.2821   -0.4869   17.9293 Cl  0  0  0  0  0  0
   -2.5159    9.3726   13.1025 H   0  0  0  0  0  0
  1  2  1  0  0  0
  1  5  2  0  0  0
  2  4  2  0  0  0
  2  8  1  0  0  0
  3  7  1  0  0  0
  3 10  1  0  0  0
  3 11  2  0  0  0
  4  6  1  0  0  0
  5  6  1  0  0  0
  5 19  1  0  0  0
  7 14  2  0  0  0
  7 15  1  0  0  0
  8 16  2  0  0  0
  8 17  1  0  0  0
  9 12  1  0  0  0
  9 13  2  0  0  0
  9 20  1  0  0  0
 12 18  1  0  0  0
 12 27  1  0  0  0
 14 22  1  0  0  0
 15 23  2  0  0  0
 16 24  1  0  0  0
 17 25  2  0  0  0
 18 22  2  0  0  0
 18 23  1  0  0  0
 19 20  1  0  0  0
 21 24  2  0  0  0
 21 25  1  0  0  0
 21 26  1  0  0  0
M  END
>  <$CLUSTER>
567

>  <CHROM.0>
2.22680331,172.25530945,73.59362222

>  <CHROM.1>
-4.25896351,7.17904011,13.44852897,2.44113786,1.25581619,1.97200266

>  <INDEX>
368855

>  <Name>
InterBioScreen STOCK5S-22526

>  <RI>
-1.67511e+09

>  <Rbt.Current_Directory>
/aloy/home/acomajuncosa/PocketVec_v2/GitLab_repo

>  <Rbt.Executable>
rbdock ($Id: //depot/dev/client3/rdock/2021.1/src/exe/rbdock.cxx#4 $)

>  <Rbt.Library>
libRbt.so (2021.1, Build901 2021/07/19)

>  <Rbt.Parameter_File>
results/run_pocketvec/dock.prm

>  <Rbt.Receptor>
results/run_pocketvec/st_parameters.prm

>  <SCORE>
-11.6798

>  <SCORE.INTER>
-6.07171

>  <SCORE.INTER.CONST>
1

>  <SCORE.INTER.POLAR>
0

>  <SCORE.INTER.REPUL>
0.0513746

>  <SCORE.INTER.ROT>
5

>  <SCORE.INTER.VDW>
-16.7286

>  <SCORE.INTER.norm>
-0.233527

>  <SCORE.INTRA>
-9.98424e-13

>  <SCORE.INTRA.DIHEDRAL>
-5.21361e-13

>  <SCORE.INTRA.DIHEDRAL.0>
2.34692

>  <SCORE.INTRA.POLAR>
0

>  <SCORE.INTRA.POLAR.0>
0

>  <SCORE.INTRA.REPUL>
0

>  <SCORE.INTRA.REPUL.0>
0

>  <SCORE.INTRA.VDW>
-7.37743e-13

>  <SCORE.INTRA.VDW.0>
-0.525169

>  <SCORE.INTRA.norm>
-3.84009e-14

>  <SCORE.RESTR>
0

>  <SCORE.RESTR.CAVITY>
0

>  <SCORE.RESTR.norm>
0

>  <SCORE.SYSTEM>
-5.6081

>  <SCORE.SYSTEM.CONST>
0

>  <SCORE.SYSTEM.DIHEDRAL>
1.2337

>  <SCORE.SYSTEM.POLAR>
-1.74337

>  <SCORE.SYSTEM.VDW>
-0.297487

>  <SCORE.SYSTEM.norm>
-0.215696

>  <SCORE.heavy>
26

>  <SCORE.norm>
-0.449223

$$$$
Asinex ASN 05343028
  rDOCK(R)          3D
libRbt.so/2021.1/901 2021/07/19
 29 31  0  0  0  0  0  0  0  0999 V2000
   -5.2982   10.2873    4.8187 S   0  0  0  0  0  0
   -2.8876    4.1635    8.3960 O   0  0  0  0  0  0
   -3.3930    5.3449    8.8749 C   0  0  0  0  0  0
   -3.1661    5.5033   10.1636 N   0  0  0  0  0  0
   -2.3367    3.6281    9.5193 C   0  0  0  0  0  0
   -2.4773    4.3807   10.5824 N   0  0  0  0  0  0
   -6.0629    8.8034    5.2105 N   0  0  0  0  0  0
   -4.0847    6.2265    7.9182 C   0  0  0  0  0  0
   -2.1926    1.6097   12.1002 C   0  0  0  0  0  0
   -6.1935   11.0376    3.9579 O   0  0  0  0  0  0
   -4.7187   10.9037    5.9957 O   0  0  0  0  0  0
   -1.5424    2.0801    9.4435 S   0  0  0  0  0  0
   -2.6643    2.7172   12.7189 N   0  0  0  0  0  0
   -2.7154    0.5070   12.2202 O   0  0  0  0  0  0
   -4.2197    5.8685    6.5771 C   0  0  0  0  0  0
   -4.6110    7.4352    8.3733 C   0  0  0  0  0  0
   -1.0198    1.8672   11.1593 C   0  0  0  0  0  0
   -5.4060    7.9309    6.1463 C   0  0  0  0  0  0
   -3.9660    9.7026    3.7950 C   0  0  0  0  0  0
   -3.7091    2.9134   13.6365 C   0  0  0  0  0  0
   -4.8789    6.7192    5.6890 C   0  0  0  0  0  0
   -5.2710    8.2895    7.4893 C   0  0  0  0  0  0
   -4.5329    1.8671   14.0602 C   0  0  0  0  0  0
   -3.9395    4.2023   14.1395 C   0  0  0  0  0  0
   -5.5669    2.1084   14.9708 C   0  0  0  0  0  0
   -4.9718    4.4405   15.0481 C   0  0  0  0  0  0
   -5.7873    3.3927   15.4651 C   0  0  0  0  0  0
   -6.9484    8.5495    4.7962 H   0  0  0  0  0  0
   -2.1707    3.5636   12.4745 H   0  0  0  0  0  0
  1  7  1  0  0  0
  1 10  2  0  0  0
  1 11  2  0  0  0
  1 19  1  0  0  0
  2  3  1  0  0  0
  2  5  1  0  0  0
  3  4  2  0  0  0
  3  8  1  0  0  0
  4  6  1  0  0  0
  5  6  2  0  0  0
  5 12  1  0  0  0
  7 18  1  0  0  0
  7 28  1  0  0  0
  8 15  2  0  0  0
  8 16  1  0  0  0
  9 13  1  0  0  0
  9 14  2  0  0  0
  9 17  1  0  0  0
 12 17  1  0  0  0
 13 20  1  0  0  0
 13 29  1  0  0  0
 15 21  1  0  0  0
 16 22  2  0  0  0
 18 21  2  0  0  0
 18 22  1  0  0  0
 20 23  2  0  0  0
 20 24  1  0  0  0
 23 25  1  0  0  0
 24 26  2  0  0  0
 25 27  2  0  0  0
 26 27  1  0  0  0
M  END
>  <$CLUSTER>
228

>  <CHROM.0>
2.74377035,171.03918451,74.59494923

>  <CHROM.1>
-3.93515087,5.47780907,9.25565066,1.82695510,0.85063705,-1.02786436

>  <INDEX>
146110

>  <Name>
Asinex ASN 05343028

>  <RI>
-1.67511e+09

>  <Rbt.Current_Directory>
/aloy/home/acomajuncosa/PocketVec_v2/GitLab_repo

>  <Rbt.Executable>
rbdock ($Id: //depot/dev/client3/rdock/2021.1/src/exe/rbdock.cxx#4 $)

>  <Rbt.Library>
libRbt.so (2021.1, Build901 2021/07/19)

>  <Rbt.Parameter_File>
results/run_pocketvec/dock.prm

>  <Rbt.Receptor>
results/run_pocketvec/st_parameters.prm

>  <SCORE>
-9.57801

>  <SCORE.INTER>
-3.98644

>  <SCORE.INTER.CONST>
1

>  <SCORE.INTER.POLAR>
-0.704602

>  <SCORE.INTER.REPUL>
0

>  <SCORE.INTER.ROT>
7

>  <SCORE.INTER.VDW>
-13.9908

>  <SCORE.INTER.norm>
-0.147646

>  <SCORE.INTRA>
1.27847e-12

>  <SCORE.INTRA.DIHEDRAL>
1.29496e-12

>  <SCORE.INTRA.DIHEDRAL.0>
13.6796

>  <SCORE.INTRA.POLAR>
2.64344e-13

>  <SCORE.INTRA.POLAR.0>
-0.369193

>  <SCORE.INTRA.REPUL>
0

>  <SCORE.INTRA.REPUL.0>
0

>  <SCORE.INTRA.VDW>
-2.67786e-13

>  <SCORE.INTRA.VDW.0>
-3.14786

>  <SCORE.INTRA.norm>
4.73506e-14

>  <SCORE.RESTR>
0

>  <SCORE.RESTR.CAVITY>
0

>  <SCORE.RESTR.norm>
0

>  <SCORE.SYSTEM>
-5.59157

>  <SCORE.SYSTEM.CONST>
0

>  <SCORE.SYSTEM.DIHEDRAL>
1.45842

>  <SCORE.SYSTEM.POLAR>
-1.75158

>  <SCORE.SYSTEM.VDW>
-0.365413

>  <SCORE.SYSTEM.norm>
-0.207095

>  <SCORE.heavy>
27

>  <SCORE.norm>
-0.354741

$$$$
Asinex ASN 03365236
  rDOCK(R)          3D
libRbt.so/2021.1/901 2021/07/19
 31 33  0  0  0  0  0  0  0  0999 V2000
   -4.0017    5.8533   14.2652 C   0  0  0  0  0  0
   -4.5863    6.7319   15.3458 C   0  0  0  0  0  0
   -3.8166    7.8059   15.7296 N   0  0  0  0  0  0
   -4.4442    4.0762   11.4798 C   0  0  0  0  0  0
   -2.8076    6.1775   13.7712 C   0  0  0  0  0  0
   -2.5902    8.1027   15.1951 C   0  0  0  0  0  0
   -2.0673    7.3292   14.2368 C   0  0  0  0  0  0
   -4.2858    3.8313   12.8460 N   0  0  0  0  0  0
   -4.8976    4.6836   13.8827 C   0  0  0  0  0  0
   -5.0996    5.2131   11.1317 N   0  0  0  0  0  0
   -1.8686    9.2452   15.6643 C   0  0  0  0  0  0
   -0.7928    7.6113   13.6619 C   0  0  0  0  0  0
   -0.0846    8.7265   14.1168 C   0  0  0  0  0  0
   -0.6221    9.5398   15.1167 C   0  0  0  0  0  0
   -3.8959    3.1006   10.2254 S   0  0  0  0  0  0
   -5.6827    6.4976   15.8470 O   0  0  0  0  0  0
   -5.5662    6.0020   10.1012 C   0  0  0  0  0  0
   -6.5227    7.6227    7.9986 C   0  0  0  0  0  0
   -7.0027    8.4382    7.0626 F   0  0  0  0  0  0
   -5.3709    5.6330    8.7688 C   0  0  0  0  0  0
   -6.2529    7.2021   10.3612 C   0  0  0  0  0  0
   -5.8461    6.4363    7.7250 C   0  0  0  0  0  0
   -6.7276    8.0074    9.3210 C   0  0  0  0  0  0
   -3.4946    2.6958   13.3615 C   0  0  0  0  0  0
   -5.0553    1.0609   12.4590 O   0  0  0  0  0  0
    0.1420   10.7304   15.6016 C   0  0  0  0  0  0
    1.2518    9.0475   13.5295 C   0  0  0  0  0  0
   -4.3546    1.4716   13.6440 C   0  0  0  0  0  0
   -4.1784    8.4139   16.4511 H   0  0  0  0  0  0
   -5.3528    5.6780   11.9921 H   0  0  0  0  0  0
   -5.5810    0.2904   12.6850 H   0  0  0  0  0  0
  1  2  1  0  0  0
  1  5  2  0  0  0
  1  9  1  0  0  0
  2  3  1  0  0  0
  2 16  2  0  0  0
  3  6  1  0  0  0
  3 29  1  0  0  0
  4  8  1  0  0  0
  4 10  1  0  0  0
  4 15  2  0  0  0
  5  7  1  0  0  0
  6  7  2  0  0  0
  6 11  1  0  0  0
  7 12  1  0  0  0
  8  9  1  0  0  0
  8 24  1  0  0  0
 10 17  1  0  0  0
 10 30  1  0  0  0
 11 14  2  0  0  0
 12 13  2  0  0  0
 13 14  1  0  0  0
 13 27  1  0  0  0
 14 26  1  0  0  0
 17 20  2  0  0  0
 17 21  1  0  0  0
 18 19  1  0  0  0
 18 22  2  0  0  0
 18 23  1  0  0  0
 20 22  1  0  0  0
 21 23  2  0  0  0
 24 28  1  0  0  0
 25 28  1  0  0  0
 25 31  1  0  0  0
M  END
>  <$CLUSTER>
202

>  <CHROM.0>
177.98080781,172.15218928,-52.55330971

>  <CHROM.1>
-3.85527849,6.19852051,12.44520502,-0.08237633,0.96709329,2.67646444

>  <INDEX>
131464

>  <Name>
Asinex ASN 03365236

>  <RI>
-1.67511e+09

>  <Rbt.Current_Directory>
/aloy/home/acomajuncosa/PocketVec_v2/GitLab_repo

>  <Rbt.Executable>
rbdock ($Id: //depot/dev/client3/rdock/2021.1/src/exe/rbdock.cxx#4 $)

>  <Rbt.Library>
libRbt.so (2021.1, Build901 2021/07/19)

>  <Rbt.Parameter_File>
results/run_pocketvec/dock.prm

>  <Rbt.Receptor>
results/run_pocketvec/st_parameters.prm

>  <SCORE>
-11.8766

>  <SCORE.INTER>
-9.97751

>  <SCORE.INTER.CONST>
1

>  <SCORE.INTER.POLAR>
-0.699944

>  <SCORE.INTER.REPUL>
0

>  <SCORE.INTER.ROT>
5

>  <SCORE.INTER.VDW>
-17.9977

>  <SCORE.INTER.norm>
-0.35634

>  <SCORE.INTRA>
1.08358e-13

>  <SCORE.INTRA.DIHEDRAL>
-1.18128e-13

>  <SCORE.INTRA.DIHEDRAL.0>
5.54131

>  <SCORE.INTRA.POLAR>
0

>  <SCORE.INTRA.POLAR.0>
0

>  <SCORE.INTRA.REPUL>
0

>  <SCORE.INTRA.REPUL.0>
0

>  <SCORE.INTRA.VDW>
1.67422e-13

>  <SCORE.INTRA.VDW.0>
-2.32372

>  <SCORE.INTRA.norm>
3.86992e-15

>  <SCORE.RESTR>
0

>  <SCORE.RESTR.CAVITY>
0

>  <SCORE.RESTR.norm>
0

>  <SCORE.SYSTEM>
-1.89911

>  <SCORE.SYSTEM.CONST>
0

>  <SCORE.SYSTEM.DIHEDRAL>
0.647691

>  <SCORE.SYSTEM.POLAR>
-0.994987

>  <SCORE.SYSTEM.REPUL>
0.0592728

>  <SCORE.SYSTEM.VDW>
0.863633

>  <SCORE.SYSTEM.norm>
-0.0678255

>  <SCORE.heavy>
28

>  <SCORE.norm>
-0.424165

$$$$
Life Chemicals F0566-0293
  rDOCK(R)          3D
libRbt.so/2021.1/901 2021/07/19
 29 32  0  0  0  0  0  0  0  0999 V2000
    2.1936    5.9760   12.4913 C   0  0  0  0  0  0
   -4.6524    1.7355   11.7007 S   0  0  0  0  0  0
    1.0169    5.4415   12.4191 N   0  0  0  0  0  0
    2.4709    7.2723   12.9021 N   0  0  0  0  0  0
    3.7204    5.1258   12.0645 S   0  0  0  0  0  0
    4.6674    6.5737   12.4486 C   0  0  0  0  0  0
    3.8405    7.6116   12.8741 C   0  0  0  0  0  0
    0.8842    4.0519   11.9631 C   0  0  0  0  0  0
   -5.1825    1.7460   13.2884 N   0  0  0  0  0  0
   -3.0443    2.4478   11.8147 C   0  0  0  0  0  0
    6.0485    6.7133   12.3548 C   0  0  0  0  0  0
   -5.5064    2.6391   10.9480 O   0  0  0  0  0  0
   -4.5211    0.3494   11.2895 O   0  0  0  0  0  0
    4.4203    8.8369   13.2150 C   0  0  0  0  0  0
   -0.4962    3.5950   11.9352 C   0  0  0  0  0  0
    1.8756    3.4135   11.6584 O   0  0  0  0  0  0
   -2.8791    3.8272   11.7009 C   0  0  0  0  0  0
   -1.9321    1.6241   11.9781 C   0  0  0  0  0  0
   -1.6015    4.3891   11.7535 C   0  0  0  0  0  0
   -0.6523    2.1810   12.0297 C   0  0  0  0  0  0
    6.6188    7.9378   12.6991 C   0  0  0  0  0  0
    1.4393    8.2197   13.3079 C   0  0  0  0  0  0
    5.8083    8.9953   13.1268 C   0  0  0  0  0  0
    7.9464    8.0211   12.5932 F   0  0  0  0  0  0
   -4.5215    0.8241   14.2495 C   0  0  0  0  0  0
   -5.4850    3.0593   13.9158 C   0  0  0  0  0  0
    0.9992    9.0734   12.1281 C   0  0  0  0  0  0
   -5.6152    2.6693   15.4218 C   0  0  0  0  0  0
   -5.3366    1.1836   15.5180 C   0  0  0  0  0  0
  1  3  2  0  0  0
  1  4  1  0  0  0
  1  5  1  0  0  0
  2  9  1  0  0  0
  2 10  1  0  0  0
  2 12  2  0  0  0
  2 13  2  0  0  0
  3  8  1  0  0  0
  4  7  1  0  0  0
  4 22  1  0  0  0
  5  6  1  0  0  0
  6  7  2  0  0  0
  6 11  1  0  0  0
  7 14  1  0  0  0
  8 15  1  0  0  0
  8 16  2  0  0  0
  9 25  1  0  0  0
  9 26  1  0  0  0
 10 17  2  0  0  0
 10 18  1  0  0  0
 11 21  2  0  0  0
 14 23  2  0  0  0
 15 19  2  0  0  0
 15 20  1  0  0  0
 17 19  1  0  0  0
 18 20  2  0  0  0
 21 23  1  0  0  0
 21 24  1  0  0  0
 22 27  1  0  0  0
 25 29  1  0  0  0
 26 28  1  0  0  0
 28 29  1  0  0  0
M  END
>  <$CLUSTER>
458

>  <CHROM.0>
175.25570423,170.80909963,71.07083248

>  <CHROM.1>
0.00971041,4.54968375,12.54787019,0.47383337,0.25098742,0.41343997

>  <INDEX>
274605

>  <Name>
Life Chemicals F0566-0293

>  <RI>
-1.67511e+09

>  <Rbt.Current_Directory>
/aloy/home/acomajuncosa/PocketVec_v2/GitLab_repo

>  <Rbt.Executable>
rbdock ($Id: //depot/dev/client3/rdock/2021.1/src/exe/rbdock.cxx#4 $)

>  <Rbt.Library>
libRbt.so (2021.1, Build901 2021/07/19)

>  <Rbt.Parameter_File>
results/run_pocketvec/dock.prm

>  <Rbt.Receptor>
results/run_pocketvec/st_parameters.prm

>  <SCORE>
-16.8708

>  <SCORE.INTER>
-11.4397

>  <SCORE.INTER.CONST>
1

>  <SCORE.INTER.POLAR>
-1.10008

>  <SCORE.INTER.REPUL>
0

>  <SCORE.INTER.ROT>
5

>  <SCORE.INTER.VDW>
-18.0994

>  <SCORE.INTER.norm>
-0.394472

>  <SCORE.INTRA>
-5.64282e-12

>  <SCORE.INTRA.DIHEDRAL>
-1.82165e-12

>  <SCORE.INTRA.DIHEDRAL.0>
6.33345

>  <SCORE.INTRA.POLAR>
0

>  <SCORE.INTRA.POLAR.0>
0

>  <SCORE.INTRA.REPUL>
0

>  <SCORE.INTRA.REPUL.0>
0

>  <SCORE.INTRA.VDW>
-4.73199e-12

>  <SCORE.INTRA.VDW.0>
0.407093

>  <SCORE.INTRA.norm>
-1.9458e-13

>  <SCORE.RESTR>
0

>  <SCORE.RESTR.CAVITY>
0

>  <SCORE.RESTR.norm>
0

>  <SCORE.SYSTEM>
-5.43109

>  <SCORE.SYSTEM.CONST>
0

>  <SCORE.SYSTEM.DIHEDRAL>
1.10271

>  <SCORE.SYSTEM.POLAR>
-1.72229

>  <SCORE.SYSTEM.VDW>
-0.126643

>  <SCORE.SYSTEM.norm>
-0.187279

>  <SCORE.heavy>
29

>  <SCORE.norm>
-0.581751

$$$$
EMC Microcollections 001A3586
  rDOCK(R)          3D
libRbt.so/2021.1/901 2021/07/19
 32 35  0  0  0  0  0  0  0  0999 V2000
   -5.7243    2.8231   14.8254 N   0  0  0  0  0  0
   -5.9833    1.3815   16.5155 C   0  0  0  0  0  0
   -5.0810    1.6769   14.4519 C   0  0  0  0  0  0
   -6.2794    2.6676   16.0729 C   0  0  0  0  0  0
   -4.3321    1.3505   13.2456 C   0  0  0  0  0  0
   -3.7522    2.3506   12.4886 N   0  0  0  0  0  0
   -5.2227    0.7678   15.4736 C   0  0  0  0  0  0
   -3.1406    1.8167   11.4553 C   0  0  0  0  0  0
   -3.2188    0.1095   11.3242 S   0  0  0  0  0  0
   -6.3962    0.8255   17.8013 C   0  0  0  0  0  0
   -4.1475    0.0660   12.7672 C   0  0  0  0  0  0
   -2.4139    2.6423   10.4412 C   0  0  0  0  0  0
   -5.8155    4.0298   13.9827 C   0  0  0  0  0  0
   -1.7572    4.8782    9.7115 N   0  0  0  0  0  0
   -2.3832    4.0322   10.5671 C   0  0  0  0  0  0
   -7.0548    1.4623   18.6216 O   0  0  0  0  0  0
   -1.7358    2.1111    9.3371 C   0  0  0  0  0  0
   -5.9959   -0.4718   18.0377 N   0  0  0  0  0  0
   -1.1213    4.3122    8.6659 C   0  0  0  0  0  0
   -4.6846    5.0109   14.2427 C   0  0  0  0  0  0
   -7.0380    3.7765   16.7087 C   0  0  0  0  0  0
   -2.5978    6.8087   14.7422 C   0  0  0  0  0  0
   -1.0820    2.9496    8.4361 C   0  0  0  0  0  0
   -3.5677    5.0416   13.4036 C   0  0  0  0  0  0
   -4.7397    5.8655   15.3518 C   0  0  0  0  0  0
   -3.7007    6.7679   15.5950 C   0  0  0  0  0  0
   -2.5291    5.9443   13.6487 C   0  0  0  0  0  0
   -1.5122    7.6434   14.8814 O   0  0  0  0  0  0
   -0.4039    5.2705    7.6874 C   0  0  0  0  0  0
   -1.5282    8.5420   15.9845 C   0  0  0  0  0  0
   -6.2427   -0.9267   18.9055 H   0  0  0  0  0  0
   -5.4553   -0.9679   17.3434 H   0  0  0  0  0  0
  1  3  1  0  0  0
  1  4  1  0  0  0
  1 13  1  0  0  0
  2  4  2  0  0  0
  2  7  1  0  0  0
  2 10  1  0  0  0
  3  5  1  0  0  0
  3  7  2  0  0  0
  4 21  1  0  0  0
  5  6  1  0  0  0
  5 11  2  0  0  0
  6  8  2  0  0  0
  8  9  1  0  0  0
  8 12  1  0  0  0
  9 11  1  0  0  0
 10 16  2  0  0  0
 10 18  1  0  0  0
 12 15  2  0  0  0
 12 17  1  0  0  0
 13 20  1  0  0  0
 14 15  1  0  0  0
 14 19  2  0  0  0
 17 23  2  0  0  0
 18 31  1  0  0  0
 18 32  1  0  0  0
 19 23  1  0  0  0
 19 29  1  0  0  0
 20 24  1  0  0  0
 20 25  2  0  0  0
 22 26  2  0  0  0
 22 27  1  0  0  0
 22 28  1  0  0  0
 24 27  2  0  0  0
 25 26  1  0  0  0
 28 30  1  0  0  0
M  END
>  <$CLUSTER>
345

>  <CHROM.0>
178.26277320,170.98107014,73.93081710

>  <CHROM.1>
-3.80777176,3.30074898,13.51203299,2.86215018,0.99868673,0.61079604

>  <INDEX>
215862

>  <Name>
EMC Microcollections 001A3586

>  <RI>
-1.67511e+09

>  <Rbt.Current_Directory>
/aloy/home/acomajuncosa/PocketVec_v2/GitLab_repo

>  <Rbt.Executable>
rbdock ($Id: //depot/dev/client3/rdock/2021.1/src/exe/rbdock.cxx#4 $)

>  <Rbt.Library>
libRbt.so (2021.1, Build901 2021/07/19)

>  <Rbt.Parameter_File>
results/run_pocketvec/dock.prm

>  <Rbt.Receptor>
results/run_pocketvec/st_parameters.prm

>  <SCORE>
-17.5305

>  <SCORE.INTER>
-12.0749

>  <SCORE.INTER.CONST>
1

>  <SCORE.INTER.POLAR>
-0.308769

>  <SCORE.INTER.REPUL>
0

>  <SCORE.INTER.ROT>
6

>  <SCORE.INTER.VDW>
-22.4251

>  <SCORE.INTER.norm>
-0.402497

>  <SCORE.INTRA>
1.15352e-12

>  <SCORE.INTRA.DIHEDRAL>
-1.65912e-12

>  <SCORE.INTRA.DIHEDRAL.0>
5.11489

>  <SCORE.INTRA.POLAR>
0

>  <SCORE.INTRA.POLAR.0>
0

>  <SCORE.INTRA.REPUL>
0

>  <SCORE.INTRA.REPUL.0>
0

>  <SCORE.INTRA.VDW>
1.98308e-12

>  <SCORE.INTRA.VDW.0>
-0.808855

>  <SCORE.INTRA.norm>
3.84507e-14

>  <SCORE.RESTR>
0

>  <SCORE.RESTR.CAVITY>
0

>  <SCORE.RESTR.norm>
0

>  <SCORE.SYSTEM>
-5.45561

>  <SCORE.SYSTEM.CONST>
0

>  <SCORE.SYSTEM.DIHEDRAL>
1.38008

>  <SCORE.SYSTEM.POLAR>
-1.74615

>  <SCORE.SYSTEM.VDW>
-0.208761

>  <SCORE.SYSTEM.norm>
-0.181854

>  <SCORE.heavy>
30

>  <SCORE.norm>
-0.58435

$$$$
Chem T&I AMSACS-01505
  rDOCK(R)          3D
libRbt.so/2021.1/901 2021/07/19
 26 28  0  0  0  0  0  0  0  0999 V2000
   -6.7857    6.2215    8.1755 S   0  0  0  0  0  0
   -6.2414    6.3877    9.7733 N   0  0  0  0  0  0
   -5.3147    5.5134   10.3613 C   0  0  0  0  0  0
   -4.9765    5.6349   11.6513 N   0  0  0  0  0  0
   -4.0888    4.6468   11.8435 N   0  0  0  0  0  0
   -4.6296    4.4404    9.7429 C   0  0  0  0  0  0
   -7.8763    7.6198    8.0802 C   0  0  0  0  0  0
   -7.3852    8.8462    7.6323 C   0  0  0  0  0  0
   -3.8445    3.9010   10.7315 C   0  0  0  0  0  0
   -8.2532    9.9333    7.5308 C   0  0  0  0  0  0
   -5.6864    6.4663    7.2622 O   0  0  0  0  0  0
   -7.5988    5.0261    8.0670 O   0  0  0  0  0  0
   -9.6003    9.7885    7.8644 C   0  0  0  0  0  0
   -9.2249    7.4616    8.4049 C   0  0  0  0  0  0
   -3.4907    4.4635   13.1529 C   0  0  0  0  0  0
  -10.0852    8.5551    8.2997 C   0  0  0  0  0  0
   -7.8704   11.1439    7.1227 F   0  0  0  0  0  0
   -4.3770    3.6511   14.0806 C   0  0  0  0  0  0
   -6.0536    2.1493   15.7412 C   0  0  0  0  0  0
  -10.3620   10.8765    7.7392 F   0  0  0  0  0  0
   -7.0641    1.2281   16.7558 Cl  0  0  0  0  0  0
   -6.2065    3.5326   15.6640 C   0  0  0  0  0  0
   -5.0700    1.5139   14.9844 C   0  0  0  0  0  0
   -5.3729    4.2822   14.8316 C   0  0  0  0  0  0
   -4.2357    2.2624   14.1524 C   0  0  0  0  0  0
   -6.6012    7.1521   10.3276 H   0  0  0  0  0  0
  1  2  1  0  0  0
  1  7  1  0  0  0
  1 11  2  0  0  0
  1 12  2  0  0  0
  2  3  1  0  0  0
  2 26  1  0  0  0
  3  4  2  0  0  0
  3  6  1  0  0  0
  4  5  1  0  0  0
  5  9  1  0  0  0
  5 15  1  0  0  0
  6  9  2  0  0  0
  7  8  1  0  0  0
  7 14  2  0  0  0
  8 10  2  0  0  0
 10 13  1  0  0  0
 10 17  1  0  0  0
 13 16  2  0  0  0
 13 20  1  0  0  0
 14 16  1  0  0  0
 15 18  1  0  0  0
 18 24  2  0  0  0
 18 25  1  0  0  0
 19 21  1  0  0  0
 19 22  2  0  0  0
 19 23  1  0  0  0
 22 24  1  0  0  0
 23 25  2  0  0  0
M  END
>  <$CLUSTER>
175

>  <CHROM.0>
2.40354311,171.60166385,73.71712894

>  <CHROM.1>
-6.57861755,5.72173043,10.86239895,-1.88646408,-0.47761514,2.14492957

>  <INDEX>
513086

>  <Name>
Chem T&I AMSACS-01505

>  <RI>
-1.67511e+09

>  <Rbt.Current_Directory>
/aloy/home/acomajuncosa/PocketVec_v2/GitLab_repo

>  <Rbt.Executable>
rbdock ($Id: //depot/dev/client3/rdock/2021.1/src/exe/rbdock.cxx#4 $)

>  <Rbt.Library>
libRbt.so (2021.1, Build901 2021/07/19)

>  <Rbt.Parameter_File>
results/run_pocketvec/dock.prm

>  <Rbt.Receptor>
results/run_pocketvec/st_parameters.prm

>  <SCORE>
-15.6159

>  <SCORE.INTER>
-10.0069

>  <SCORE.INTER.CONST>
1

>  <SCORE.INTER.POLAR>
-0.0950526

>  <SCORE.INTER.REPUL>
0

>  <SCORE.INTER.ROT>
5

>  <SCORE.INTER.VDW>
-20.0837

>  <SCORE.INTER.norm>
-0.400275

>  <SCORE.INTRA>
1.33582e-12

>  <SCORE.INTRA.DIHEDRAL>
1.84119e-12

>  <SCORE.INTRA.DIHEDRAL.0>
6.15941

>  <SCORE.INTRA.POLAR>
0

>  <SCORE.INTRA.POLAR.0>
0

>  <SCORE.INTRA.REPUL>
0

>  <SCORE.INTRA.REPUL.0>
0

>  <SCORE.INTRA.VDW>
4.15223e-13

>  <SCORE.INTRA.VDW.0>
-2.68291

>  <SCORE.INTRA.norm>
5.34328e-14

>  <SCORE.RESTR>
0

>  <SCORE.RESTR.CAVITY>
0

>  <SCORE.RESTR.norm>
0

>  <SCORE.SYSTEM>
-5.60906

>  <SCORE.SYSTEM.CONST>
0

>  <SCORE.SYSTEM.DIHEDRAL>
1.2996

>  <SCORE.SYSTEM.POLAR>
-1.74439

>  <SCORE.SYSTEM.VDW>
-0.327938

>  <SCORE.SYSTEM.norm>
-0.224362

>  <SCORE.heavy>
25

>  <SCORE.norm>
-0.624638

$$$$
Chem T&I ARAK0118211
  rDOCK(R)          3D
libRbt.so/2021.1/901 2021/07/19
 26 28  0  0  0  0  0  0  0  0999 V2000
   -3.5511    9.4476    9.3066 S   0  0  0  0  0  0
   -5.1469    9.5156    8.8062 N   0  0  0  0  0  0
   -3.5758    8.1940   10.5438 C   0  0  0  0  0  0
   -3.2371   10.7161    9.9414 O   0  0  0  0  0  0
   -2.7577    8.9813    8.1833 O   0  0  0  0  0  0
   -3.5286    5.2174   13.5151 N   0  0  0  0  0  0
   -5.6871    8.3601    8.0416 C   0  0  0  0  0  0
   -6.1550   10.0562    9.7558 C   0  0  0  0  0  0
   -4.6671    4.6352   13.7470 C   0  0  0  0  0  0
   -3.8215    8.5335   11.8747 C   0  0  0  0  0  0
   -3.3108    6.8683   10.1989 C   0  0  0  0  0  0
   -3.5569    6.2102   12.5205 C   0  0  0  0  0  0
   -4.7793    3.5579   14.7829 C   0  0  0  0  0  0
   -5.0893    1.5556   16.6774 C   0  0  0  0  0  0
   -3.2962    5.8806   11.1867 C   0  0  0  0  0  0
   -3.8077    7.5443   12.8608 C   0  0  0  0  0  0
   -6.9965    8.6888    7.3304 C   0  0  0  0  0  0
   -7.4716   10.4127    9.0751 C   0  0  0  0  0  0
   -3.6853    3.1500   15.5210 C   0  0  0  0  0  0
   -6.0393    2.9830   14.9715 C   0  0  0  0  0  0
   -3.8385    2.1415   16.4757 C   0  0  0  0  0  0
   -6.1886    1.9759   15.9267 C   0  0  0  0  0  0
   -8.0520    9.2299    8.2973 C   0  0  0  0  0  0
   -5.1135    0.5723   17.6473 O   0  0  0  0  0  0
   -6.3651   -0.0591   17.8938 C   0  0  0  0  0  0
   -9.3243    9.6310    7.5546 C   0  0  0  0  0  0
  1  2  1  0  0  0
  1  3  1  0  0  0
  1  4  2  0  0  0
  1  5  2  0  0  0
  2  7  1  0  0  0
  2  8  1  0  0  0
  3 10  1  0  0  0
  3 11  2  0  0  0
  6  9  2  0  0  0
  6 12  1  0  0  0
  7 17  1  0  0  0
  8 18  1  0  0  0
  9 13  1  0  0  0
 10 16  2  0  0  0
 11 15  1  0  0  0
 12 15  2  0  0  0
 12 16  1  0  0  0
 13 19  2  0  0  0
 13 20  1  0  0  0
 14 21  2  0  0  0
 14 22  1  0  0  0
 14 24  1  0  0  0
 17 23  1  0  0  0
 18 23  1  0  0  0
 19 21  1  0  0  0
 20 22  2  0  0  0
 23 26  1  0  0  0
 24 25  1  0  0  0
M  END
>  <$CLUSTER>
642

>  <CHROM.0>
177.21795628,176.06656261,73.85630165

>  <CHROM.1>
-4.91380543,6.51682000,11.83110987,-1.61068240,0.19342402,2.36317153

>  <INDEX>
536545

>  <Name>
Chem T&I ARAK0118211

>  <RI>
-1.67511e+09

>  <Rbt.Current_Directory>
/aloy/home/acomajuncosa/PocketVec_v2/GitLab_repo

>  <Rbt.Executable>
rbdock ($Id: //depot/dev/client3/rdock/2021.1/src/exe/rbdock.cxx#4 $)

>  <Rbt.Library>
libRbt.so (2021.1, Build901 2021/07/19)

>  <Rbt.Parameter_File>
results/run_pocketvec/dock.prm

>  <Rbt.Receptor>
results/run_pocketvec/st_parameters.prm

>  <SCORE>
-12.1554

>  <SCORE.INTER>
-6.75478

>  <SCORE.INTER.CONST>
1

>  <SCORE.INTER.POLAR>
-0.959166

>  <SCORE.INTER.REPUL>
0.182732

>  <SCORE.INTER.ROT>
5

>  <SCORE.INTER.VDW>
-14.8073

>  <SCORE.INTER.norm>
-0.259799

>  <SCORE.INTRA>
-2.70339e-12

>  <SCORE.INTRA.DIHEDRAL>
-6.63469e-13

>  <SCORE.INTRA.DIHEDRAL.0>
7.82236

>  <SCORE.INTRA.POLAR>
0

>  <SCORE.INTRA.POLAR.0>
0

>  <SCORE.INTRA.REPUL>
0

>  <SCORE.INTRA.REPUL.0>
0

>  <SCORE.INTRA.VDW>
-2.37166e-12

>  <SCORE.INTRA.VDW.0>
0.367112

>  <SCORE.INTRA.norm>
-1.03977e-13

>  <SCORE.RESTR>
0

>  <SCORE.RESTR.CAVITY>
0

>  <SCORE.RESTR.norm>
0

>  <SCORE.SYSTEM>
-5.40057

>  <SCORE.SYSTEM.CONST>
0

>  <SCORE.SYSTEM.DIHEDRAL>
1.0659

>  <SCORE.SYSTEM.POLAR>
-1.74553

>  <SCORE.SYSTEM.VDW>
0.00128949

>  <SCORE.SYSTEM.norm>
-0.207714

>  <SCORE.heavy>
26

>  <SCORE.norm>
-0.467514

$$$$
Chembridge 7634772
  rDOCK(R)          3D
libRbt.so/2021.1/901 2021/07/19
 30 34  0  0  0  0  0  0  0  0999 V2000
   -4.3479    4.7379   12.2200 C   0  0  0  0  0  0
   -4.1801    4.7760   10.8376 N   0  0  0  0  0  0
   -5.2238    5.5757   10.3982 C   0  0  0  0  0  0
   -5.3953    5.4685   12.5545 N   0  0  0  0  0  0
   -3.9771    2.8513   13.7109 N   0  0  0  0  0  0
   -5.9394    5.9920   11.4169 N   0  0  0  0  0  0
   -4.3044    0.6551   13.8689 N   0  0  0  0  0  0
   -3.6777    1.6080   13.2159 C   0  0  0  0  0  0
   -3.4315    4.1099   13.2148 C   0  0  0  0  0  0
   -4.8434    2.6836   14.7658 C   0  0  0  0  0  0
   -5.6456    5.8294    8.7311 S   0  0  0  0  0  0
   -5.0344    1.3046   14.8371 C   0  0  0  0  0  0
   -3.1669    4.1421   10.0717 C   0  0  0  0  0  0
   -6.6712    8.3308    9.3559 C   0  0  0  0  0  0
   -7.0659    6.9346    8.8809 C   0  0  0  0  0  0
   -6.6644    8.6352   10.7138 C   0  0  0  0  0  0
   -7.0332    7.7131   11.6165 F   0  0  0  0  0  0
   -5.4725    3.5807   15.6368 C   0  0  0  0  0  0
   -6.2734    9.3072    8.4382 C   0  0  0  0  0  0
   -5.8898    0.7768   15.8192 C   0  0  0  0  0  0
   -2.8043    2.8181   10.3454 C   0  0  0  0  0  0
   -2.5212    4.8384    9.0421 C   0  0  0  0  0  0
   -6.2898    9.8968   11.1671 C   0  0  0  0  0  0
   -6.3202    3.0366   16.6074 C   0  0  0  0  0  0
   -5.8954   10.5755    8.8844 C   0  0  0  0  0  0
   -6.5278    1.6596   16.6984 C   0  0  0  0  0  0
   -5.9034   10.8716   10.2480 C   0  0  0  0  0  0
   -1.5225    4.2108    8.2941 C   0  0  0  0  0  0
   -1.8064    2.1972    9.5905 C   0  0  0  0  0  0
   -1.1659    2.8919    8.5659 C   0  0  0  0  0  0
  1  2  1  0  0  0
  1  4  2  0  0  0
  1  9  1  0  0  0
  2  3  1  0  0  0
  2 13  1  0  0  0
  3  6  2  0  0  0
  3 11  1  0  0  0
  4  6  1  0  0  0
  5  8  1  0  0  0
  5  9  1  0  0  0
  5 10  1  0  0  0
  7  8  2  0  0  0
  7 12  1  0  0  0
 10 12  2  0  0  0
 10 18  1  0  0  0
 11 15  1  0  0  0
 12 20  1  0  0  0
 13 21  1  0  0  0
 13 22  2  0  0  0
 14 15  1  0  0  0
 14 16  2  0  0  0
 14 19  1  0  0  0
 16 17  1  0  0  0
 16 23  1  0  0  0
 18 24  2  0  0  0
 19 25  2  0  0  0
 20 26  2  0  0  0
 21 29  2  0  0  0
 22 28  1  0  0  0
 23 27  2  0  0  0
 24 26  1  0  0  0
 25 27  1  0  0  0
 28 30  2  0  0  0
 29 30  1  0  0  0
M  END
>  <$CLUSTER>
126

>  <CHROM.0>
171.90699400,172.57172524,73.44915572

>  <CHROM.1>
-4.89804465,5.00369960,11.52846677,-1.35573234,0.84575767,-0.82372857

>  <INDEX>
81402

>  <Name>
Chembridge 7634772

>  <RI>
-1.67511e+09

>  <Rbt.Current_Directory>
/aloy/home/acomajuncosa/PocketVec_v2/GitLab_repo

>  <Rbt.Executable>
rbdock ($Id: //depot/dev/client3/rdock/2021.1/src/exe/rbdock.cxx#4 $)

>  <Rbt.Library>
libRbt.so (2021.1, Build901 2021/07/19)

>  <Rbt.Parameter_File>
results/run_pocketvec/dock.prm

>  <Rbt.Receptor>
results/run_pocketvec/st_parameters.prm

>  <SCORE>
-14.585

>  <SCORE.INTER>
-9.12307

>  <SCORE.INTER.CONST>
1

>  <SCORE.INTER.POLAR>
-0.453549

>  <SCORE.INTER.REPUL>
0

>  <SCORE.INTER.ROT>
6

>  <SCORE.INTER.VDW>
-18.981

>  <SCORE.INTER.norm>
-0.304102

>  <SCORE.INTRA>
-7.67209e-12

>  <SCORE.INTRA.DIHEDRAL>
1.27898e-13

>  <SCORE.INTRA.DIHEDRAL.0>
10.8598

>  <SCORE.INTRA.POLAR>
0

>  <SCORE.INTRA.POLAR.0>
0

>  <SCORE.INTRA.REPUL>
0

>  <SCORE.INTRA.REPUL.0>
0

>  <SCORE.INTRA.VDW>
-7.73603e-12

>  <SCORE.INTRA.VDW.0>
4.71783

>  <SCORE.INTRA.norm>
-2.55736e-13

>  <SCORE.RESTR>
0

>  <SCORE.RESTR.CAVITY>
0

>  <SCORE.RESTR.norm>
0

>  <SCORE.SYSTEM>
-5.46191

>  <SCORE.SYSTEM.CONST>
0

>  <SCORE.SYSTEM.DIHEDRAL>
1.29899

>  <SCORE.SYSTEM.POLAR>
-1.74218

>  <SCORE.SYSTEM.VDW>
-0.188002

>  <SCORE.SYSTEM.norm>
-0.182064

>  <SCORE.heavy>
30

>  <SCORE.norm>
-0.486166

$$$$
Chem T&I IVK/0000805
  rDOCK(R)          3D
libRbt.so/2021.1/901 2021/07/19
 26 28  0  0  0  0  0  0  0  0999 V2000
    0.1553    4.3952    9.2813 S   0  0  0  0  0  0
   -0.9497    3.4303   10.0878 N   0  0  0  0  0  0
    1.1123    5.0895   10.5941 C   0  0  0  0  0  0
   -2.5912    1.9396   12.0513 N   0  3  0  0  0  0
    0.7137    6.2954   11.1789 C   0  0  0  0  0  0
   -0.5872    5.4647    8.6353 O   0  0  0  0  0  0
    1.0066    3.5234    8.4919 O   0  0  0  0  0  0
   -0.4425    2.2050   10.7621 C   0  0  0  0  0  0
   -2.0001    4.1008   10.8996 C   0  0  0  0  0  0
    1.4876    6.8564   12.1966 C   0  0  0  0  0  0
    2.2840    4.4514   11.0108 C   0  0  0  0  0  0
    2.6542    6.2181   12.6197 C   0  0  0  0  0  0
    3.0527    5.0179   12.0287 C   0  0  0  0  0  0
   -3.1422    3.1551   11.3355 C   0  0  0  0  0  0
   -1.5619    1.2298   11.1964 C   0  0  0  0  0  0
   -3.6752    1.0133   12.5160 C   0  0  0  0  0  0
   -4.4824    1.6044   13.6617 C   0  0  0  0  0  0
   -5.9213    2.7568   15.7632 C   0  0  0  0  0  0
   -4.0737    1.4101   14.9830 C   0  0  0  0  0  0
   -5.6007    2.4020   13.3950 C   0  0  0  0  0  0
   -4.7973    1.9787   16.0318 C   0  0  0  0  0  0
   -6.3215    2.9695   14.4458 C   0  0  0  0  0  0
    1.0690    8.1407   12.8331 C   0  0  0  0  0  0
    3.4780    6.8236   13.7110 C   0  0  0  0  0  0
   -6.6991    3.3630   16.8853 C   0  0  0  0  0  0
   -2.1236    2.2648   12.8857 H   0  0  0  0  0  0
  1  2  1  0  0  0
  1  3  1  0  0  0
  1  6  2  0  0  0
  1  7  2  0  0  0
  2  8  1  0  0  0
  2  9  1  0  0  0
  3  5  2  0  0  0
  3 11  1  0  0  0
  4 14  1  0  0  0
  4 15  1  0  0  0
  4 16  1  0  0  0
  4 26  1  0  0  0
  5 10  1  0  0  0
  8 15  1  0  0  0
  9 14  1  0  0  0
 10 12  2  0  0  0
 10 23  1  0  0  0
 11 13  2  0  0  0
 12 13  1  0  0  0
 12 24  1  0  0  0
 16 17  1  0  0  0
 17 19  2  0  0  0
 17 20  1  0  0  0
 18 21  2  0  0  0
 18 22  1  0  0  0
 18 25  1  0  0  0
 19 21  1  0  0  0
 20 22  2  0  0  0
M  END
>  <$CLUSTER>
727

>  <CHROM.0>
-1.60287151,172.49190396,73.88613085

>  <CHROM.1>
-1.32957475,3.87132679,12.05412481,0.21862787,-0.59756256,-2.04976033

>  <INDEX>
553334

>  <Name>
Chem T&I IVK/0000805

>  <RI>
-1.67511e+09

>  <Rbt.Current_Directory>
/aloy/home/acomajuncosa/PocketVec_v2/GitLab_repo

>  <Rbt.Executable>
rbdock ($Id: //depot/dev/client3/rdock/2021.1/src/exe/rbdock.cxx#4 $)

>  <Rbt.Library>
libRbt.so (2021.1, Build901 2021/07/19)

>  <Rbt.Parameter_File>
results/run_pocketvec/dock.prm

>  <Rbt.Receptor>
results/run_pocketvec/st_parameters.prm

>  <SCORE>
-11.8491

>  <SCORE.INTER>
-6.24359

>  <SCORE.INTER.CONST>
1

>  <SCORE.INTER.POLAR>
-0.654782

>  <SCORE.INTER.REPUL>
0

>  <SCORE.INTER.ROT>
4

>  <SCORE.INTER.VDW>
-13.4173

>  <SCORE.INTER.norm>
-0.249744

>  <SCORE.INTRA>
-5.98854e-13

>  <SCORE.INTRA.DIHEDRAL>
5.90639e-14

>  <SCORE.INTRA.DIHEDRAL.0>
2.61314

>  <SCORE.INTRA.POLAR>
0

>  <SCORE.INTRA.POLAR.0>
0

>  <SCORE.INTRA.REPUL>
0

>  <SCORE.INTRA.REPUL.0>
0

>  <SCORE.INTRA.VDW>
-6.28386e-13

>  <SCORE.INTRA.VDW.0>
-2.23276

>  <SCORE.INTRA.norm>
-2.39542e-14

>  <SCORE.RESTR>
0

>  <SCORE.RESTR.CAVITY>
0

>  <SCORE.RESTR.norm>
0

>  <SCORE.SYSTEM>
-5.60552

>  <SCORE.SYSTEM.CONST>
0

>  <SCORE.SYSTEM.DIHEDRAL>
1.25586

>  <SCORE.SYSTEM.POLAR>
-1.74578

>  <SCORE.SYSTEM.VDW>
-0.297806

>  <SCORE.SYSTEM.norm>
-0.224221

>  <SCORE.heavy>
25

>  <SCORE.norm>
-0.473965

$$$$
InterBioScreen STOCK5S-68320
  rDOCK(R)          3D
libRbt.so/2021.1/901 2021/07/19
 31 33  0  0  0  0  0  0  0  0999 V2000
   -4.0570    4.6769    9.9470 C   0  0  0  0  0  0
   -4.7028    4.5642   11.1754 N   0  0  0  0  0  0
   -4.1191    3.6019   11.8243 C   0  0  0  0  0  0
   -4.4177    5.5889    9.0218 C   0  0  0  0  0  0
   -4.4431    3.1534   13.0881 N   0  0  0  0  0  0
   -2.9848    3.6747    9.8730 C   0  0  0  0  0  0
   -3.0300    2.9839   11.0896 C   0  0  0  0  0  0
   -5.4645    3.6681   13.8874 C   0  0  0  0  0  0
   -5.5541    6.5554    9.2576 C   0  0  0  0  0  0
   -3.7578    5.7552    7.6807 C   0  0  0  0  0  0
   -3.2043    5.7951    6.7188 N   0  0  0  0  0  0
   -5.5534    2.9539   15.2110 C   0  0  0  0  0  0
   -6.2252    4.5853   13.5941 O   0  0  0  0  0  0
   -6.1702    6.4724   10.3899 O   0  0  0  0  0  0
   -5.8925    7.4410    8.3424 N   0  0  0  0  0  0
   -4.4995    2.3397   15.8365 C   0  0  0  0  0  0
   -6.8237    3.0073   15.8540 C   0  0  0  0  0  0
   -5.9154    1.7539   17.7090 C   0  0  0  0  0  0
   -6.9900    2.3933   17.0962 C   0  0  0  0  0  0
   -4.6706    1.7292   17.0805 C   0  0  0  0  0  0
   -6.1597    1.1900   18.8932 F   0  0  0  0  0  0
   -2.0370    3.3174    8.9341 C   0  0  0  0  0  0
   -2.1747    1.9525   11.4139 C   0  0  0  0  0  0
   -6.9181    8.4147    8.3899 C   0  0  0  0  0  0
   -6.4459    9.6819    9.0767 C   0  0  0  0  0  0
   -7.5394   10.7454    9.1509 C   0  0  0  0  0  0
   -1.1525    2.2725    9.2341 C   0  0  0  0  0  0
   -1.2204    1.5961   10.4631 C   0  0  0  0  0  0
   -7.0582   12.0067    9.8385 C   0  0  0  0  0  0
   -3.8973    2.3920   13.4642 H   0  0  0  0  0  0
   -5.3462    7.4220    7.4931 H   0  0  0  0  0  0
  1  2  1  0  0  0
  1  4  2  0  0  0
  1  6  1  0  0  0
  2  3  2  0  0  0
  3  5  1  0  0  0
  3  7  1  0  0  0
  4  9  1  0  0  0
  4 10  1  0  0  0
  5  8  1  0  0  0
  5 30  1  0  0  0
  6  7  1  0  0  0
  6 22  2  0  0  0
  7 23  2  0  0  0
  8 12  1  0  0  0
  8 13  2  0  0  0
  9 14  2  0  0  0
  9 15  1  0  0  0
 10 11  3  0  0  0
 12 16  1  0  0  0
 12 17  2  0  0  0
 15 24  1  0  0  0
 15 31  1  0  0  0
 16 20  2  0  0  0
 17 19  1  0  0  0
 18 19  2  0  0  0
 18 20  1  0  0  0
 18 21  1  0  0  0
 22 27  1  0  0  0
 23 28  1  0  0  0
 24 25  1  0  0  0
 25 26  1  0  0  0
 26 29  1  0  0  0
 27 28  2  0  0  0
M  END
>  <$CLUSTER>
585

>  <CHROM.0>
1.65029350,171.97328430,74.04454780

>  <CHROM.1>
-4.87478914,4.67515274,11.78748894,-1.58834975,-0.82411577,2.21367013

>  <INDEX>
384775

>  <Name>
InterBioScreen STOCK5S-68320

>  <RI>
-1.67511e+09

>  <Rbt.Current_Directory>
/aloy/home/acomajuncosa/PocketVec_v2/GitLab_repo

>  <Rbt.Executable>
rbdock ($Id: //depot/dev/client3/rdock/2021.1/src/exe/rbdock.cxx#4 $)

>  <Rbt.Library>
libRbt.so (2021.1, Build901 2021/07/19)

>  <Rbt.Parameter_File>
results/run_pocketvec/dock.prm

>  <Rbt.Receptor>
results/run_pocketvec/st_parameters.prm

>  <SCORE>
-11.6651

>  <SCORE.INTER>
-6.0541

>  <SCORE.INTER.CONST>
1

>  <SCORE.INTER.POLAR>
-0.292514

>  <SCORE.INTER.REPUL>
0

>  <SCORE.INTER.ROT>
6

>  <SCORE.INTER.VDW>
-16.4596

>  <SCORE.INTER.norm>
-0.208762

>  <SCORE.INTRA>
-2.30979e-12

>  <SCORE.INTRA.DIHEDRAL>
-5.27578e-13

>  <SCORE.INTRA.DIHEDRAL.0>
3.6212

>  <SCORE.INTRA.POLAR>
0

>  <SCORE.INTRA.POLAR.0>
0

>  <SCORE.INTRA.REPUL>
-1.28314e-13

>  <SCORE.INTRA.REPUL.0>
0.104275

>  <SCORE.INTRA.VDW>
-1.40443e-12

>  <SCORE.INTRA.VDW.0>
-0.528646

>  <SCORE.INTRA.norm>
-7.9648e-14

>  <SCORE.RESTR>
0

>  <SCORE.RESTR.CAVITY>
0

>  <SCORE.RESTR.norm>
0

>  <SCORE.SYSTEM>
-5.61099

>  <SCORE.SYSTEM.CONST>
0

>  <SCORE.SYSTEM.DIHEDRAL>
1.30837

>  <SCORE.SYSTEM.POLAR>
-1.74708

>  <SCORE.SYSTEM.VDW>
-0.325103

>  <SCORE.SYSTEM.norm>
-0.193482

>  <SCORE.heavy>
29

>  <SCORE.norm>
-0.402244

$$$$
InterBioScreen STOCK3S-83770
  rDOCK(R)          3D
libRbt.so/2021.1/901 2021/07/19
 30 33  0  0  0  0  0  0  0  0999 V2000
   -4.1070    4.7250   13.8352 N   0  0  0  0  0  0
   -3.4538    5.3296   12.8005 N   0  0  0  0  0  0
   -2.8916    4.6951   11.7245 C   0  0  0  0  0  0
   -4.2223    3.4295   13.8165 C   0  0  0  0  0  0
   -3.0380    3.2387   11.6863 C   0  0  0  0  0  0
   -3.7102    2.5928   12.7175 C   0  0  0  0  0  0
   -2.0635    8.7275   13.9095 C   0  0  0  0  0  0
   -4.9026    2.8050   14.9636 C   0  0  0  0  0  0
   -3.3571    6.8155   12.9421 C   0  0  0  0  0  0
   -2.1469    7.2323   13.7628 C   0  0  0  0  0  0
   -2.3003    5.2914   10.8273 O   0  0  0  0  0  0
   -0.9625    9.1191   14.6584 N   0  0  0  0  0  0
   -2.8610    9.5273   13.4345 O   0  0  0  0  0  0
   -4.1640    2.0782   15.8991 C   0  0  0  0  0  0
   -6.2794    2.9758   15.1095 C   0  0  0  0  0  0
   -0.5141   10.4005   15.0325 C   0  0  0  0  0  0
   -4.8213    1.4948   16.9829 C   0  0  0  0  0  0
   -6.9297    2.3888   16.1959 C   0  0  0  0  0  0
   -6.2016    1.6474   17.1293 C   0  0  0  0  0  0
   -2.5204    2.5097   10.6099 C   0  0  0  0  0  0
   -3.8910    1.2074   12.6622 C   0  0  0  0  0  0
   -6.8996    1.0151   18.2895 C   0  0  0  0  0  0
    0.6525   10.4961   15.8060 C   0  0  0  0  0  0
   -1.1790   11.5765   14.6683 C   0  0  0  0  0  0
   -3.3763    0.4777   11.5891 C   0  0  0  0  0  0
   -2.6883    1.1268   10.5650 C   0  0  0  0  0  0
   -0.6841   12.8209   15.0703 C   0  0  0  0  0  0
    1.1448   11.7413   16.2063 C   0  0  0  0  0  0
    0.4750   12.9052   15.8389 C   0  0  0  0  0  0
   -0.3870    8.3586   14.9906 H   0  0  0  0  0  0
  1  2  1  0  0  0
  1  4  2  0  0  0
  2  3  1  0  0  0
  2  9  1  0  0  0
  3  5  1  0  0  0
  3 11  2  0  0  0
  4  6  1  0  0  0
  4  8  1  0  0  0
  5  6  2  0  0  0
  5 20  1  0  0  0
  6 21  1  0  0  0
  7 10  1  0  0  0
  7 12  1  0  0  0
  7 13  2  0  0  0
  8 14  2  0  0  0
  8 15  1  0  0  0
  9 10  1  0  0  0
 12 16  1  0  0  0
 12 30  1  0  0  0
 14 17  1  0  0  0
 15 18  2  0  0  0
 16 23  1  0  0  0
 16 24  2  0  0  0
 17 19  2  0  0  0
 18 19  1  0  0  0
 19 22  1  0  0  0
 20 26  2  0  0  0
 21 25  2  0  0  0
 23 28  2  0  0  0
 24 27  1  0  0  0
 25 26  1  0  0  0
 27 29  2  0  0  0
 28 29  1  0  0  0
M  END
>  <$CLUSTER>
531

>  <CHROM.0>
179.11476714,171.16526228,-49.72263000

>  <CHROM.1>
-3.02560751,5.57576717,14.08635963,2.44873055,-0.99165839,-2.28023180

>  <INDEX>
345888

>  <Name>
InterBioScreen STOCK3S-83770

>  <RI>
-1.67511e+09

>  <Rbt.Current_Directory>
/aloy/home/acomajuncosa/PocketVec_v2/GitLab_repo

>  <Rbt.Executable>
rbdock ($Id: //depot/dev/client3/rdock/2021.1/src/exe/rbdock.cxx#4 $)

>  <Rbt.Library>
libRbt.so (2021.1, Build901 2021/07/19)

>  <Rbt.Parameter_File>
results/run_pocketvec/dock.prm

>  <Rbt.Receptor>
results/run_pocketvec/st_parameters.prm

>  <SCORE>
-9.85867

>  <SCORE.INTER>
-7.98756

>  <SCORE.INTER.CONST>
1

>  <SCORE.INTER.POLAR>
0

>  <SCORE.INTER.REPUL>
0

>  <SCORE.INTER.ROT>
5

>  <SCORE.INTER.VDW>
-18.3876

>  <SCORE.INTER.norm>
-0.275433

>  <SCORE.INTRA>
-2.62457e-13

>  <SCORE.INTRA.DIHEDRAL>
5.76428e-13

>  <SCORE.INTRA.DIHEDRAL.0>
7.90041

>  <SCORE.INTRA.POLAR>
0

>  <SCORE.INTRA.POLAR.0>
0

>  <SCORE.INTRA.REPUL>
0

>  <SCORE.INTRA.REPUL.0>
0

>  <SCORE.INTRA.VDW>
-5.50671e-13

>  <SCORE.INTRA.VDW.0>
-1.44586

>  <SCORE.INTRA.norm>
-9.05023e-15

>  <SCORE.RESTR>
0

>  <SCORE.RESTR.CAVITY>
0

>  <SCORE.RESTR.norm>
0

>  <SCORE.SYSTEM>
-1.87111

>  <SCORE.SYSTEM.CONST>
0

>  <SCORE.SYSTEM.DIHEDRAL>
0.955478

>  <SCORE.SYSTEM.POLAR>
-0.994987

>  <SCORE.SYSTEM.REPUL>
0.0393786

>  <SCORE.SYSTEM.VDW>
0.83722

>  <SCORE.SYSTEM.norm>
-0.0645209

>  <SCORE.heavy>
29

>  <SCORE.norm>
-0.339954

$$$$
Life Chemicals F0529-0304
  rDOCK(R)          3D
libRbt.so/2021.1/901 2021/07/19
 25 27  0  0  0  0  0  0  0  0999 V2000
   -4.1812    3.8462   11.8808 C   0  0  0  0  0  0
   -4.8533    4.6117   10.5049 S   0  0  0  0  0  0
   -4.4310    6.1051   11.2202 C   0  0  0  0  0  0
   -3.6909    4.6708   12.7794 N   0  0  0  0  0  0
   -4.1900    2.3733   12.0129 C   0  0  0  0  0  0
   -3.8374    5.9896   12.3916 N   0  0  0  0  0  0
   -4.6916    7.3214   10.6166 N   0  0  0  0  0  0
   -5.3096    7.5235    9.3899 C   0  0  0  0  0  0
   -4.6386    1.7537   13.1993 C   0  0  0  0  0  0
   -5.4132    8.9964    9.0751 C   0  0  0  0  0  0
   -6.0801    9.3000    7.7407 C   0  0  0  0  0  0
   -3.7227    1.5692   10.9576 C   0  0  0  0  0  0
   -5.1363    9.4343    6.3298 S   0  0  0  0  0  0
   -4.6205    0.3562   13.2999 C   0  0  0  0  0  0
   -6.5277    9.6968    5.3696 C   0  0  0  0  0  0
   -5.7424    6.6857    8.6049 O   0  0  0  0  0  0
   -7.4208    9.4266    7.4960 C   0  0  0  0  0  0
   -7.6835    9.6669    6.1168 C   0  0  0  0  0  0
   -4.1589   -0.4252   12.2388 C   0  0  0  0  0  0
   -3.7097    0.1784   11.0700 C   0  0  0  0  0  0
   -5.0909    2.5896   14.1921 O   0  0  0  0  0  0
   -4.1952   -1.7813   12.4752 O   0  0  0  0  0  0
   -5.5234    1.9938   15.4094 C   0  0  0  0  0  0
   -3.7343   -2.6266   11.4269 C   0  0  0  0  0  0
   -4.4023    8.1484   11.1201 H   0  0  0  0  0  0
  1  2  1  0  0  0
  1  4  2  0  0  0
  1  5  1  0  0  0
  2  3  1  0  0  0
  3  6  2  0  0  0
  3  7  1  0  0  0
  4  6  1  0  0  0
  5  9  2  0  0  0
  5 12  1  0  0  0
  7  8  1  0  0  0
  7 25  1  0  0  0
  8 10  1  0  0  0
  8 16  2  0  0  0
  9 14  1  0  0  0
  9 21  1  0  0  0
 10 11  1  0  0  0
 11 13  1  0  0  0
 11 17  2  0  0  0
 12 20  2  0  0  0
 13 15  1  0  0  0
 14 19  2  0  0  0
 15 18  2  0  0  0
 17 18  1  0  0  0
 19 20  1  0  0  0
 19 22  1  0  0  0
 21 23  1  0  0  0
 22 24  1  0  0  0
M  END
>  <$CLUSTER>
409

>  <CHROM.0>
-178.92016542,172.50381437,75.91100854

>  <CHROM.1>
-4.94200725,4.74563016,10.47886609,-0.02988267,-1.40604353,0.98167223

>  <INDEX>
271975

>  <Name>
Life Chemicals F0529-0304

>  <RI>
-1.67511e+09

>  <Rbt.Current_Directory>
/aloy/home/acomajuncosa/PocketVec_v2/GitLab_repo

>  <Rbt.Executable>
rbdock ($Id: //depot/dev/client3/rdock/2021.1/src/exe/rbdock.cxx#4 $)

>  <Rbt.Library>
libRbt.so (2021.1, Build901 2021/07/19)

>  <Rbt.Parameter_File>
results/run_pocketvec/dock.prm

>  <Rbt.Receptor>
results/run_pocketvec/st_parameters.prm

>  <SCORE>
-8.35732

>  <SCORE.INTER>
-2.93085

>  <SCORE.INTER.CONST>
1

>  <SCORE.INTER.POLAR>
0

>  <SCORE.INTER.REPUL>
0.0294839

>  <SCORE.INTER.ROT>
6

>  <SCORE.INTER.VDW>
-14.4783

>  <SCORE.INTER.norm>
-0.122119

>  <SCORE.INTRA>
-3.74856e-12

>  <SCORE.INTRA.DIHEDRAL>
3.90799e-14

>  <SCORE.INTRA.DIHEDRAL.0>
10.1997

>  <SCORE.INTRA.POLAR>
0

>  <SCORE.INTRA.POLAR.0>
0

>  <SCORE.INTRA.REPUL>
0

>  <SCORE.INTRA.REPUL.0>
0

>  <SCORE.INTRA.VDW>
-3.7681e-12

>  <SCORE.INTRA.VDW.0>
2.25966

>  <SCORE.INTRA.norm>
-1.5619e-13

>  <SCORE.RESTR>
0

>  <SCORE.RESTR.CAVITY>
0

>  <SCORE.RESTR.norm>
0

>  <SCORE.SYSTEM>
-5.42647

>  <SCORE.SYSTEM.CONST>
0

>  <SCORE.SYSTEM.DIHEDRAL>
1.51479

>  <SCORE.SYSTEM.POLAR>
-1.76222

>  <SCORE.SYSTEM.VDW>
-0.192323

>  <SCORE.SYSTEM.norm>
-0.226103

>  <SCORE.heavy>
24

>  <SCORE.norm>
-0.348222

$$$$
Chem T&I AMSACS-12205
  rDOCK(R)          3D
libRbt.so/2021.1/901 2021/07/19
 26 28  0  0  0  0  0  0  0  0999 V2000
   -1.3939    3.1957   11.8070 S   0  0  0  0  0  0
    0.8240    4.7098   12.2855 C   0  0  0  0  0  0
    0.3713    5.7534   11.5128 N   0  0  0  0  0  0
    0.1527    3.4877   12.4356 N   0  0  0  0  0  0
    1.9864    4.9499   12.9067 N   0  0  0  0  0  0
    2.2629    6.1952   12.4963 N   0  0  0  0  0  0
   -2.3871    4.1862   12.9012 C   0  0  0  0  0  0
    1.2980    6.6681   11.6683 C   0  0  0  0  0  0
   -1.5088    3.7468   10.4721 O   0  0  0  0  0  0
   -1.7322    1.8086   12.0642 O   0  0  0  0  0  0
   -2.6629    5.5055   12.5444 C   0  0  0  0  0  0
   -3.4584    6.2806   13.3877 C   0  0  0  0  0  0
   -3.9695    5.7353   14.5662 C   0  0  0  0  0  0
    3.4623    6.8717   12.9371 C   0  0  0  0  0  0
   -2.8919    3.6291   14.0673 C   0  0  0  0  0  0
   -3.6862    4.4112   14.9050 C   0  0  0  0  0  0
    4.6774    6.4822   12.1150 C   0  0  0  0  0  0
    5.4209    5.3455   12.4516 C   0  0  0  0  0  0
    6.5208    4.9712   11.6780 C   0  0  0  0  0  0
    7.4334    3.5939   12.0947 Cl  0  0  0  0  0  0
    6.1343    6.8496   10.2138 C   0  0  0  0  0  0
   -3.7689    7.6999   13.0342 C   0  0  0  0  0  0
    5.0331    7.2270   10.9857 C   0  0  0  0  0  0
   -4.8197    6.5745   15.4634 C   0  0  0  0  0  0
    6.8780    5.7236   10.5609 C   0  0  0  0  0  0
    0.6134    2.7456   12.9426 H   0  0  0  0  0  0
  1  4  1  0  0  0
  1  7  1  0  0  0
  1  9  2  0  0  0
  1 10  2  0  0  0
  2  3  1  0  0  0
  2  4  1  0  0  0
  2  5  2  0  0  0
  3  8  2  0  0  0
  4 26  1  0  0  0
  5  6  1  0  0  0
  6  8  1  0  0  0
  6 14  1  0  0  0
  7 11  1  0  0  0
  7 15  2  0  0  0
 11 12  2  0  0  0
 12 13  1  0  0  0
 12 22  1  0  0  0
 13 16  2  0  0  0
 13 24  1  0  0  0
 14 17  1  0  0  0
 15 16  1  0  0  0
 17 18  2  0  0  0
 17 23  1  0  0  0
 18 19  1  0  0  0
 19 20  1  0  0  0
 19 25  2  0  0  0
 21 23  2  0  0  0
 21 25  1  0  0  0
M  END
>  <$CLUSTER>
791

>  <CHROM.0>
-1.53344970,172.96998739,72.21355927

>  <CHROM.1>
1.01499302,5.03458668,12.40290928,3.13663396,0.19159720,0.17243868

>  <INDEX>
518655

>  <Name>
Chem T&I AMSACS-12205

>  <RI>
-1.67511e+09

>  <Rbt.Current_Directory>
/aloy/home/acomajuncosa/PocketVec_v2/GitLab_repo

>  <Rbt.Executable>
rbdock ($Id: //depot/dev/client3/rdock/2021.1/src/exe/rbdock.cxx#4 $)

>  <Rbt.Library>
libRbt.so (2021.1, Build901 2021/07/19)

>  <Rbt.Parameter_File>
results/run_pocketvec/dock.prm

>  <Rbt.Receptor>
results/run_pocketvec/st_parameters.prm

>  <SCORE>
-9.65526

>  <SCORE.INTER>
-4.06979

>  <SCORE.INTER.CONST>
1

>  <SCORE.INTER.POLAR>
-0.0386559

>  <SCORE.INTER.REPUL>
0

>  <SCORE.INTER.ROT>
5

>  <SCORE.INTER.VDW>
-14.3384

>  <SCORE.INTER.norm>
-0.162792

>  <SCORE.INTRA>
2.05613e-12

>  <SCORE.INTRA.DIHEDRAL>
4.19842e-12

>  <SCORE.INTRA.DIHEDRAL.0>
6.88444

>  <SCORE.INTRA.POLAR>
0

>  <SCORE.INTRA.POLAR.0>
0

>  <SCORE.INTRA.REPUL>
0

>  <SCORE.INTRA.REPUL.0>
0

>  <SCORE.INTRA.VDW>
-4.30767e-14

>  <SCORE.INTRA.VDW.0>
-3.07981

>  <SCORE.INTRA.norm>
8.22453e-14

>  <SCORE.RESTR>
0

>  <SCORE.RESTR.CAVITY>
0

>  <SCORE.RESTR.norm>
0

>  <SCORE.SYSTEM>
-5.58547

>  <SCORE.SYSTEM.CONST>
0

>  <SCORE.SYSTEM.DIHEDRAL>
1.02477

>  <SCORE.SYSTEM.POLAR>
-1.73191

>  <SCORE.SYSTEM.VDW>
-0.209371

>  <SCORE.SYSTEM.norm>
-0.223419

>  <SCORE.heavy>
25

>  <SCORE.norm>
-0.386211

$$$$
Nanosyn NS40942
  rDOCK(R)          3D
libRbt.so/2021.1/901 2021/07/19
 29 31  0  0  0  0  0  0  0  0999 V2000
   -5.1168    1.0500   11.6651 S   0  0  0  0  0  0
   -3.4318    5.5629    9.5304 C   0  0  0  0  0  0
   -4.6812    1.3000   13.3046 N   0  0  0  0  0  0
   -3.8739    2.0268   10.8490 C   0  0  0  0  0  0
   -4.3026    6.2562   10.3417 N   0  0  0  0  0  0
   -3.1901    4.1406    9.8643 C   0  0  0  0  0  0
   -4.8454   -0.3373   11.3373 O   0  0  0  0  0  0
   -6.4091    1.6373   11.3720 O   0  0  0  0  0  0
   -4.1415    3.3767   10.5423 C   0  0  0  0  0  0
   -2.8527    6.0759    8.5754 O   0  0  0  0  0  0
   -4.9614    2.5834   13.8902 C   0  0  0  0  0  0
   -4.7500    7.5616   10.3292 C   0  0  0  0  0  0
   -5.4598    5.1005   14.9885 C   0  0  0  0  0  0
   -5.7275   10.1945   10.4035 C   0  0  0  0  0  0
   -4.3311    8.4984    9.3804 C   0  0  0  0  0  0
   -5.6642    7.9598   11.3158 C   0  0  0  0  0  0
   -6.2760    3.0010   14.1091 C   0  0  0  0  0  0
   -3.8953    3.4258   14.2200 C   0  0  0  0  0  0
   -6.5225    4.2594   14.6594 C   0  0  0  0  0  0
   -6.1505    9.2680   11.3538 C   0  0  0  0  0  0
   -4.8199    9.8088    9.4202 C   0  0  0  0  0  0
   -4.1472    4.6832   14.7699 C   0  0  0  0  0  0
   -2.6633    1.4536   10.4352 C   0  0  0  0  0  0
   -1.9801    3.5639    9.4733 C   0  0  0  0  0  0
   -1.7169    2.2229    9.7581 C   0  0  0  0  0  0
   -5.7250    6.4489   15.5745 C   0  0  0  0  0  0
   -6.2458   11.5940   10.4418 C   0  0  0  0  0  0
   -4.2407    0.5678   13.8430 H   0  0  0  0  0  0
   -4.6894    5.7007   11.0919 H   0  0  0  0  0  0
  1  3  1  0  0  0
  1  4  1  0  0  0
  1  7  2  0  0  0
  1  8  2  0  0  0
  2  5  1  0  0  0
  2  6  1  0  0  0
  2 10  2  0  0  0
  3 11  1  0  0  0
  3 28  1  0  0  0
  4  9  2  0  0  0
  4 23  1  0  0  0
  5 12  1  0  0  0
  5 29  1  0  0  0
  6  9  1  0  0  0
  6 24  2  0  0  0
 11 17  2  0  0  0
 11 18  1  0  0  0
 12 15  1  0  0  0
 12 16  2  0  0  0
 13 19  2  0  0  0
 13 22  1  0  0  0
 13 26  1  0  0  0
 14 20  2  0  0  0
 14 21  1  0  0  0
 14 27  1  0  0  0
 15 21  2  0  0  0
 16 20  1  0  0  0
 17 19  1  0  0  0
 18 22  2  0  0  0
 23 25  2  0  0  0
 24 25  1  0  0  0
M  END
>  <$CLUSTER>
85

>  <CHROM.0>
175.56182862,172.10778239,73.92504329

>  <CHROM.1>
-4.63291006,4.68508658,11.55564264,-1.38289134,1.08020848,-0.37113674

>  <INDEX>
565184

>  <Name>
Nanosyn NS40942

>  <RI>
-1.67511e+09

>  <Rbt.Current_Directory>
/aloy/home/acomajuncosa/PocketVec_v2/GitLab_repo

>  <Rbt.Executable>
rbdock ($Id: //depot/dev/client3/rdock/2021.1/src/exe/rbdock.cxx#4 $)

>  <Rbt.Library>
libRbt.so (2021.1, Build901 2021/07/19)

>  <Rbt.Parameter_File>
results/run_pocketvec/dock.prm

>  <Rbt.Receptor>
results/run_pocketvec/st_parameters.prm

>  <SCORE>
-17.7662

>  <SCORE.INTER>
-12.3081

>  <SCORE.INTER.CONST>
1

>  <SCORE.INTER.POLAR>
-0.774597

>  <SCORE.INTER.REPUL>
0

>  <SCORE.INTER.ROT>
5

>  <SCORE.INTER.VDW>
-20.0745

>  <SCORE.INTER.norm>
-0.455855

>  <SCORE.INTRA>
2.15117e-12

>  <SCORE.INTRA.DIHEDRAL>
2.20801e-12

>  <SCORE.INTRA.DIHEDRAL.0>
15.9801

>  <SCORE.INTRA.POLAR>
0

>  <SCORE.INTRA.POLAR.0>
0

>  <SCORE.INTRA.REPUL>
0

>  <SCORE.INTRA.REPUL.0>
0

>  <SCORE.INTRA.VDW>
1.04716e-12

>  <SCORE.INTRA.VDW.0>
-2.85529

>  <SCORE.INTRA.norm>
7.96729e-14

>  <SCORE.RESTR>
0

>  <SCORE.RESTR.CAVITY>
0

>  <SCORE.RESTR.norm>
0

>  <SCORE.SYSTEM>
-5.45807

>  <SCORE.SYSTEM.CONST>
0

>  <SCORE.SYSTEM.DIHEDRAL>
1.31862

>  <SCORE.SYSTEM.POLAR>
-1.7461

>  <SCORE.SYSTEM.VDW>
-0.180651

>  <SCORE.SYSTEM.norm>
-0.202151

>  <SCORE.heavy>
27

>  <SCORE.norm>
-0.658006

$$$$
Comgenex CGX-3127127
  rDOCK(R)          3D
libRbt.so/2021.1/901 2021/07/19
 31 33  0  0  0  0  0  0  0  0999 V2000
    1.5365    4.0000   11.9888 S   0  0  0  0  0  0
    0.0333    4.6668   12.4539 C   0  0  0  0  0  0
    2.2684    5.4372   12.5630 C   0  0  0  0  0  0
    1.4273    6.3199   13.0537 N   0  0  0  0  0  0
   -1.1642    3.9985   12.2792 N   0  0  0  0  0  0
    0.1227    5.8680   12.9893 N   0  0  0  0  0  0
   -1.3396    2.7380   11.7259 C   0  0  0  0  0  0
   -3.3567    2.1495   13.0790 N   0  0  0  0  0  0
   -4.6347    2.4383   13.4442 C   0  0  0  0  0  0
   -2.7986    2.3545   11.7089 C   0  0  0  0  0  0
    3.7448    5.6611   12.5054 C   0  0  0  0  0  0
   -4.8877    2.1511   14.8989 C   0  0  0  0  0  0
   -0.4868    1.9722   11.2867 O   0  0  0  0  0  0
   -5.5197    2.8504   12.6975 O   0  0  0  0  0  0
    4.2741    6.8598   13.0174 C   0  0  0  0  0  0
    4.6450    4.7281   11.9631 C   0  0  0  0  0  0
   -6.2491    1.8960   15.2556 C   0  0  0  0  0  0
   -3.9327    2.2073   15.8767 C   0  0  0  0  0  0
   -3.1004    1.0770   10.8930 C   0  0  0  0  0  0
   -5.5826    1.6865   17.5681 C   0  0  0  0  0  0
   -6.5753    1.6532   16.5916 C   0  0  0  0  0  0
   -4.2643    1.9649   17.2121 C   0  0  0  0  0  0
    5.6484    7.1169   12.9877 C   0  0  0  0  0  0
    6.0189    4.9865   11.9339 C   0  0  0  0  0  0
    6.5208    6.1803   12.4459 C   0  0  0  0  0  0
   -5.9937    1.3845   19.1928 Cl  0  0  0  0  0  0
   -4.5825    0.8026   10.6540 C   0  0  0  0  0  0
   -2.4080   -0.1951   11.3959 C   0  0  0  0  0  0
    7.9875    6.4542   12.4150 C   0  0  0  0  0  0
   -1.9991    4.4781   12.5862 H   0  0  0  0  0  0
   -2.7416    1.7694   13.7842 H   0  0  0  0  0  0
  1  2  1  0  0  0
  1  3  1  0  0  0
  2  5  1  0  0  0
  2  6  2  0  0  0
  3  4  2  0  0  0
  3 11  1  0  0  0
  4  6  1  0  0  0
  5  7  1  0  0  0
  5 30  1  0  0  0
  7 10  1  0  0  0
  7 13  2  0  0  0
  8  9  1  0  0  0
  8 10  1  0  0  0
  8 31  1  0  0  0
  9 12  1  0  0  0
  9 14  2  0  0  0
 10 19  1  0  0  0
 11 15  2  0  0  0
 11 16  1  0  0  0
 12 17  2  0  0  0
 12 18  1  0  0  0
 15 23  1  0  0  0
 16 24  2  0  0  0
 17 21  1  0  0  0
 18 22  2  0  0  0
 19 27  1  0  0  0
 19 28  1  0  0  0
 20 21  2  0  0  0
 20 22  1  0  0  0
 20 26  1  0  0  0
 23 25  2  0  0  0
 24 25  1  0  0  0
 25 29  1  0  0  0
M  END
>  <$CLUSTER>
391

>  <CHROM.0>
-0.76225808,172.31628230,73.96405907

>  <CHROM.1>
-0.97862527,3.37873447,13.51020105,0.21577293,-0.44852616,-1.80681380

>  <INDEX>
260085

>  <Name>
Comgenex CGX-3127127

>  <RI>
-1.67511e+09

>  <Rbt.Current_Directory>
/aloy/home/acomajuncosa/PocketVec_v2/GitLab_repo

>  <Rbt.Executable>
rbdock ($Id: //depot/dev/client3/rdock/2021.1/src/exe/rbdock.cxx#4 $)

>  <Rbt.Library>
libRbt.so (2021.1, Build901 2021/07/19)

>  <Rbt.Parameter_File>
results/run_pocketvec/dock.prm

>  <Rbt.Receptor>
results/run_pocketvec/st_parameters.prm

>  <SCORE>
-18.275

>  <SCORE.INTER>
-12.6664

>  <SCORE.INTER.CONST>
1

>  <SCORE.INTER.POLAR>
-1.29971

>  <SCORE.INTER.REPUL>
0

>  <SCORE.INTER.ROT>
6

>  <SCORE.INTER.VDW>
-19.6474

>  <SCORE.INTER.norm>
-0.436774

>  <SCORE.INTRA>
-4.65072e-12

>  <SCORE.INTRA.DIHEDRAL>
2.42029e-12

>  <SCORE.INTRA.DIHEDRAL.0>
5.14046

>  <SCORE.INTRA.POLAR>
0

>  <SCORE.INTRA.POLAR.0>
0

>  <SCORE.INTRA.REPUL>
0

>  <SCORE.INTRA.REPUL.0>
0

>  <SCORE.INTRA.VDW>
-5.86087e-12

>  <SCORE.INTRA.VDW.0>
-1.04165

>  <SCORE.INTRA.norm>
-1.6037e-13

>  <SCORE.RESTR>
0

>  <SCORE.RESTR.CAVITY>
0

>  <SCORE.RESTR.norm>
0

>  <SCORE.SYSTEM>
-5.60852

>  <SCORE.SYSTEM.CONST>
0

>  <SCORE.SYSTEM.DIHEDRAL>
1.27386

>  <SCORE.SYSTEM.POLAR>
-1.74642

>  <SCORE.SYSTEM.VDW>
-0.307629

>  <SCORE.SYSTEM.norm>
-0.193397

>  <SCORE.heavy>
29

>  <SCORE.norm>
-0.630171

$$$$
Pharmeks PHAR059863
  rDOCK(R)          3D
libRbt.so/2021.1/901 2021/07/19
 26 28  0  0  0  0  0  0  0  0999 V2000
   -1.6491    4.1460   11.5938 S   0  0  0  0  0  0
   -2.5302    2.7712   12.2720 C   0  0  0  0  0  0
   -1.3456    3.1513   10.1767 C   0  0  0  0  0  0
   -3.0578    2.8949   13.4414 N   0  0  0  0  0  0
   -1.8247    1.9455   10.1768 N   0  0  0  0  0  0
   -3.7488    1.8403   13.9919 C   0  0  0  0  0  0
   -2.4817    1.7522   11.3523 N   0  0  0  0  0  0
   -4.2452    2.1420   15.2399 N   0  0  0  0  0  0
   -0.5599    3.7369    9.0550 C   0  0  0  0  0  0
   -3.9345    0.7354   13.4820 O   0  0  0  0  0  0
   -0.6740    3.0887    7.8065 C   0  0  0  0  0  0
    0.2658    4.8308    9.1896 C   0  0  0  0  0  0
   -5.0035    1.3832   16.1652 C   0  0  0  0  0  0
    0.8638    4.6876    6.8477 C   0  0  0  0  0  0
    0.0394    3.5751    6.7074 C   0  0  0  0  0  0
    0.9779    5.3133    8.0873 C   0  0  0  0  0  0
    1.5148    5.0647    5.6944 O   0  0  0  0  0  0
    2.3789    6.1978    5.7750 C   0  0  0  0  0  0
   -5.3996    0.0670   15.9100 C   0  0  0  0  0  0
   -5.3706    1.9760   17.3829 C   0  0  0  0  0  0
    2.9794    6.4266    4.3998 C   0  0  0  0  0  0
   -6.1173    1.2670   18.3256 C   0  0  0  0  0  0
   -6.1476   -0.6414   16.8563 C   0  0  0  0  0  0
   -6.5069   -0.0431   18.0620 C   0  0  0  0  0  0
   -2.9297    0.8681   11.5466 H   0  0  0  0  0  0
   -4.0287    3.0778   15.5538 H   0  0  0  0  0  0
  1  2  1  0  0  0
  1  3  1  0  0  0
  2  4  2  0  0  0
  2  7  1  0  0  0
  3  5  2  0  0  0
  3  9  1  0  0  0
  4  6  1  0  0  0
  5  7  1  0  0  0
  6  8  1  0  0  0
  6 10  2  0  0  0
  7 25  1  0  0  0
  8 13  1  0  0  0
  8 26  1  0  0  0
  9 11  2  0  0  0
  9 12  1  0  0  0
 11 15  1  0  0  0
 12 16  2  0  0  0
 13 19  1  0  0  0
 13 20  2  0  0  0
 14 15  2  0  0  0
 14 16  1  0  0  0
 14 17  1  0  0  0
 17 18  1  0  0  0
 18 21  1  0  0  0
 19 23  2  0  0  0
 20 22  1  0  0  0
 22 24  2  0  0  0
 23 24  1  0  0  0
M  END
>  <$CLUSTER>
928

>  <CHROM.0>
3.28440983,172.23349829,73.58058609

>  <CHROM.1>
-2.07915915,2.93666131,11.51474855,-0.37389604,0.97358796,0.84213478

>  <INDEX>
599906

>  <Name>
Pharmeks PHAR059863

>  <RI>
-1.67511e+09

>  <Rbt.Current_Directory>
/aloy/home/acomajuncosa/PocketVec_v2/GitLab_repo

>  <Rbt.Executable>
rbdock ($Id: //depot/dev/client3/rdock/2021.1/src/exe/rbdock.cxx#4 $)

>  <Rbt.Library>
libRbt.so (2021.1, Build901 2021/07/19)

>  <Rbt.Parameter_File>
results/run_pocketvec/dock.prm

>  <Rbt.Receptor>
results/run_pocketvec/st_parameters.prm

>  <SCORE>
-13.1443

>  <SCORE.INTER>
-7.53742

>  <SCORE.INTER.CONST>
1

>  <SCORE.INTER.POLAR>
0

>  <SCORE.INTER.REPUL>
0

>  <SCORE.INTER.ROT>
5

>  <SCORE.INTER.VDW>
-17.9374

>  <SCORE.INTER.norm>
-0.314059

>  <SCORE.INTRA>
-2.42839e-12

>  <SCORE.INTRA.DIHEDRAL>
5.31353e-13

>  <SCORE.INTRA.DIHEDRAL.0>
1.36446

>  <SCORE.INTRA.POLAR>
0

>  <SCORE.INTRA.POLAR.0>
0

>  <SCORE.INTRA.REPUL>
0

>  <SCORE.INTRA.REPUL.0>
0

>  <SCORE.INTRA.VDW>
-2.69407e-12

>  <SCORE.INTRA.VDW.0>
0.351085

>  <SCORE.INTRA.norm>
-1.01183e-13

>  <SCORE.RESTR>
0

>  <SCORE.RESTR.CAVITY>
0

>  <SCORE.RESTR.norm>
0

>  <SCORE.SYSTEM>
-5.60685

>  <SCORE.SYSTEM.CONST>
0

>  <SCORE.SYSTEM.DIHEDRAL>
1.24038

>  <SCORE.SYSTEM.POLAR>
-1.74326

>  <SCORE.SYSTEM.VDW>
-0.299941

>  <SCORE.SYSTEM.norm>
-0.233619

>  <SCORE.heavy>
24

>  <SCORE.norm>
-0.547678

$$$$
Lithuania 1050567
  rDOCK(R)          3D
libRbt.so/2021.1/901 2021/07/19
 27 29  0  0  0  0  0  0  0  0999 V2000
   -4.8009    0.7776   13.4147 C   0  0  0  0  0  0
   -4.4147    0.2316   12.2138 N   0  0  0  0  0  0
   -4.5706    2.4849   11.5875 C   0  0  0  0  0  0
   -4.2630    1.0993   11.1538 C   0  0  0  0  0  0
   -5.0028    2.5046   13.2526 S   0  0  0  0  0  0
   -4.5036    3.5305   10.7582 C   0  0  0  0  0  0
   -4.9724    0.0576   14.4709 N   0  0  0  0  0  0
   -4.7861    4.9654   11.0714 C   0  0  0  0  0  0
   -6.6553    2.7767   19.2578 C   0  0  0  0  0  0
   -3.9274    0.8031   10.0113 O   0  0  0  0  0  0
   -6.1606    2.0484   17.9977 C   0  0  0  0  0  0
   -5.4647    5.7771   10.1794 C   0  0  0  0  0  0
   -4.3356    5.4677   12.3068 C   0  0  0  0  0  0
   -7.7949    3.3248   19.2188 O   0  0  0  0  0  0
   -5.3857    0.7237   15.7142 C   0  0  0  0  0  0
   -4.1767   -1.1925   12.0706 C   0  0  0  0  0  0
   -7.1234    1.5511   17.1180 C   0  0  0  0  0  0
   -4.8046    1.8778   17.7151 C   0  0  0  0  0  0
   -5.6970    7.1169   10.5219 C   0  0  0  0  0  0
   -4.5741    6.8019   12.6355 C   0  0  0  0  0  0
   -5.8166    2.7566   20.2053 O   0  5  0  0  0  0
   -4.4118    1.2125   16.5514 C   0  0  0  0  0  0
   -6.7295    0.8871   15.9544 C   0  0  0  0  0  0
   -5.2547    7.6235   11.7452 C   0  0  0  0  0  0
   -4.0371    7.4341   14.1223 Cl  0  0  0  0  0  0
   -5.8701    5.2026    8.9979 O   0  0  0  0  0  0
   -6.5489    6.0309    8.0634 C   0  0  0  0  0  0
  1  2  1  0  0  0
  1  5  1  0  0  0
  1  7  2  0  0  0
  2  4  1  0  0  0
  2 16  1  0  0  0
  3  4  1  0  0  0
  3  5  1  0  0  0
  3  6  2  0  0  0
  4 10  2  0  0  0
  6  8  1  0  0  0
  7 15  1  0  0  0
  8 12  1  0  0  0
  8 13  2  0  0  0
  9 11  1  0  0  0
  9 14  2  0  0  0
  9 21  1  0  0  0
 11 17  1  0  0  0
 11 18  2  0  0  0
 12 19  2  0  0  0
 12 26  1  0  0  0
 13 20  1  0  0  0
 15 22  2  0  0  0
 15 23  1  0  0  0
 17 23  2  0  0  0
 18 22  1  0  0  0
 19 24  1  0  0  0
 20 24  2  0  0  0
 20 25  1  0  0  0
 26 27  1  0  0  0
M  END
>  <$CLUSTER>
102

>  <CHROM.0>
-1.29158372,172.34715015,73.74464493

>  <CHROM.1>
-5.19910617,3.29686027,13.64032784,-2.33144758,1.40600426,-0.37557093

>  <INDEX>
222602

>  <Name>
Lithuania 1050567

>  <RI>
-1.67511e+09

>  <Rbt.Current_Directory>
/aloy/home/acomajuncosa/PocketVec_v2/GitLab_repo

>  <Rbt.Executable>
rbdock ($Id: //depot/dev/client3/rdock/2021.1/src/exe/rbdock.cxx#4 $)

>  <Rbt.Library>
libRbt.so (2021.1, Build901 2021/07/19)

>  <Rbt.Parameter_File>
results/run_pocketvec/dock.prm

>  <Rbt.Receptor>
results/run_pocketvec/st_parameters.prm

>  <SCORE>
3.41383

>  <SCORE.INTER>
8.65397

>  <SCORE.INTER.CONST>
1

>  <SCORE.INTER.POLAR>
-0.894427

>  <SCORE.INTER.REPUL>
0

>  <SCORE.INTER.ROT>
4

>  <SCORE.INTER.VDW>
2.29502

>  <SCORE.INTER.norm>
0.320517

>  <SCORE.INTRA>
-5.50138e-12

>  <SCORE.INTRA.DIHEDRAL>
-2.71072e-12

>  <SCORE.INTRA.DIHEDRAL.0>
14.067

>  <SCORE.INTRA.POLAR>
0

>  <SCORE.INTRA.POLAR.0>
0

>  <SCORE.INTRA.REPUL>
0

>  <SCORE.INTRA.REPUL.0>
0

>  <SCORE.INTRA.VDW>
-4.14602e-12

>  <SCORE.INTRA.VDW.0>
0.751614

>  <SCORE.INTRA.norm>
-2.03755e-13

>  <SCORE.RESTR>
0.366041

>  <SCORE.RESTR.CAVITY>
0.366041

>  <SCORE.RESTR.norm>
0.0135571

>  <SCORE.SYSTEM>
-5.60618

>  <SCORE.SYSTEM.CONST>
0

>  <SCORE.SYSTEM.DIHEDRAL>
1.24687

>  <SCORE.SYSTEM.POLAR>
-1.74461

>  <SCORE.SYSTEM.VDW>
-0.297927

>  <SCORE.SYSTEM.norm>
-0.207636

>  <SCORE.heavy>
27

>  <SCORE.norm>
0.126438

$$$$
Chem T&I AMCLME-04601
  rDOCK(R)          3D
libRbt.so/2021.1/901 2021/07/19
 29 31  0  0  0  0  0  0  0  0999 V2000
   -4.9155    2.1051   11.1218 S   0  0  0  0  0  0
   -3.5694    2.9974   11.6626 N   0  0  0  0  0  0
   -4.3185    0.4572   11.3492 C   0  0  0  0  0  0
    1.3114    4.8192   12.5162 C   0  0  0  0  0  0
   -1.0652    4.0623   12.6653 N   0  3  0  0  0  0
   -5.0862    2.3216    9.6987 O   0  0  0  0  0  0
   -6.0179    2.3072   12.0410 O   0  0  0  0  0  0
   -2.3361    3.0082   10.8274 C   0  0  0  0  0  0
   -3.2471    2.9951   13.1166 C   0  0  0  0  0  0
    2.2292    5.7644   12.8751 N   0  0  0  0  0  0
   -0.0686    5.1109   13.0690 C   0  0  0  0  0  0
    1.5580    3.8353   11.8231 O   0  0  0  0  0  0
   -1.3998    4.1323   11.1992 C   0  0  0  0  0  0
   -2.3165    4.1179   13.5020 C   0  0  0  0  0  0
   -4.5530   -0.1979   12.5584 C   0  0  0  0  0  0
   -3.6556   -0.1840   10.3025 C   0  0  0  0  0  0
    3.6071    5.8638   12.5716 C   0  0  0  0  0  0
   -3.4337   -2.1561   11.6853 C   0  0  0  0  0  0
   -4.1043   -1.5082   12.7236 C   0  0  0  0  0  0
   -3.2104   -1.4943   10.4775 C   0  0  0  0  0  0
    6.3486    6.1662   12.0355 C   0  0  0  0  0  0
   -2.8906   -3.7562   11.9016 Cl  0  0  0  0  0  0
    4.2836    4.9213   11.7916 C   0  0  0  0  0  0
    4.3217    6.9596   13.0799 C   0  0  0  0  0  0
    5.6838    7.1096   12.8135 C   0  0  0  0  0  0
    5.6488    5.0741   11.5268 C   0  0  0  0  0  0
    7.8048    6.3275   11.7519 C   0  0  0  0  0  0
   -0.6212    3.1713   12.8359 H   0  0  0  0  0  0
    1.8659    6.5122   13.4488 H   0  0  0  0  0  0
  1  2  1  0  0  0
  1  3  1  0  0  0
  1  6  2  0  0  0
  1  7  2  0  0  0
  2  8  1  0  0  0
  2  9  1  0  0  0
  3 15  2  0  0  0
  3 16  1  0  0  0
  4 10  1  0  0  0
  4 11  1  0  0  0
  4 12  2  0  0  0
  5 11  1  0  0  0
  5 13  1  0  0  0
  5 14  1  0  0  0
  5 28  1  0  0  0
  8 13  1  0  0  0
  9 14  1  0  0  0
 10 17  1  0  0  0
 10 29  1  0  0  0
 15 19  1  0  0  0
 16 20  2  0  0  0
 17 23  1  0  0  0
 17 24  2  0  0  0
 18 19  2  0  0  0
 18 20  1  0  0  0
 18 22  1  0  0  0
 21 25  2  0  0  0
 21 26  1  0  0  0
 21 27  1  0  0  0
 23 26  2  0  0  0
 24 25  1  0  0  0
M  END
>  <$CLUSTER>
776

>  <CHROM.0>
-1.29416153,170.99252751,-52.49797849

>  <CHROM.1>
-0.87940995,2.63396291,11.90529121,2.51983075,0.04252296,-3.07912901

>  <INDEX>
508152

>  <Name>
Chem T&I AMCLME-04601

>  <RI>
-1.67511e+09

>  <Rbt.Current_Directory>
/aloy/home/acomajuncosa/PocketVec_v2/GitLab_repo

>  <Rbt.Executable>
rbdock ($Id: //depot/dev/client3/rdock/2021.1/src/exe/rbdock.cxx#4 $)

>  <Rbt.Library>
libRbt.so (2021.1, Build901 2021/07/19)

>  <Rbt.Parameter_File>
results/run_pocketvec/dock.prm

>  <Rbt.Receptor>
results/run_pocketvec/st_parameters.prm

>  <SCORE>
-13.8384

>  <SCORE.INTER>
-11.7916

>  <SCORE.INTER.CONST>
1

>  <SCORE.INTER.POLAR>
-1.30954

>  <SCORE.INTER.REPUL>
0

>  <SCORE.INTER.ROT>
5

>  <SCORE.INTER.VDW>
-17.7392

>  <SCORE.INTER.norm>
-0.436727

>  <SCORE.INTRA>
1.28342e-13

>  <SCORE.INTRA.DIHEDRAL>
-4.40536e-13

>  <SCORE.INTRA.DIHEDRAL.0>
3.25088

>  <SCORE.INTRA.POLAR>
0

>  <SCORE.INTRA.POLAR.0>
0

>  <SCORE.INTRA.REPUL>
0

>  <SCORE.INTRA.REPUL.0>
0

>  <SCORE.INTRA.VDW>
3.4861e-13

>  <SCORE.INTRA.VDW.0>
-2.10864

>  <SCORE.INTRA.norm>
4.7534e-15

>  <SCORE.RESTR>
0

>  <SCORE.RESTR.CAVITY>
0

>  <SCORE.RESTR.norm>
0

>  <SCORE.SYSTEM>
-2.04673

>  <SCORE.SYSTEM.CONST>
0

>  <SCORE.SYSTEM.DIHEDRAL>
0.738952

>  <SCORE.SYSTEM.POLAR>
-0.994987

>  <SCORE.SYSTEM.REPUL>
0.0588839

>  <SCORE.SYSTEM.VDW>
0.672331

>  <SCORE.SYSTEM.norm>
-0.0758049

>  <SCORE.heavy>
27

>  <SCORE.norm>
-0.512532

$$$$
InterBioScreen STOCK4S-52524
  rDOCK(R)          3D
libRbt.so/2021.1/901 2021/07/19
 32 35  0  0  0  0  0  0  0  0999 V2000
   -4.7424    1.1976   12.9657 C   0  0  0  0  0  0
   -4.4275    2.4875   13.1521 C   0  0  0  0  0  0
   -3.9604    2.7557   10.7577 C   0  0  0  0  0  0
   -5.1348    0.4336   14.1151 N   0  0  0  0  0  0
   -4.8872    2.3163   15.4789 N   0  0  0  0  0  0
   -4.6807    0.6172   11.7197 N   0  0  0  0  0  0
   -5.1842    1.0130   15.2658 C   0  0  0  0  0  0
   -4.2867    1.3214   10.5993 C   0  0  0  0  0  0
   -4.5029    3.1367   14.4687 C   0  0  0  0  0  0
   -4.0279    3.2871   12.0022 C   0  0  0  0  0  0
   -3.5662    3.6897    9.6426 C   0  0  0  0  0  0
   -2.4199    4.4048    9.8215 N   0  0  0  0  0  0
   -5.6116    0.1316   16.4047 C   0  0  0  0  0  0
   -4.9919    2.8184   16.8024 C   0  0  0  0  0  0
   -4.2028    0.7407    9.4427 N   0  0  0  0  0  0
   -1.9371    5.3449    8.8042 C   0  0  0  0  0  0
   -1.5236    4.3706   10.9811 C   0  0  0  0  0  0
   -4.2288    4.3226   14.6420 O   0  0  0  0  0  0
   -4.2789    3.7645    8.6374 O   0  0  0  0  0  0
   -5.3690    2.0561   17.8363 C   0  0  0  0  0  0
   -5.6881    0.6685   17.6249 C   0  0  0  0  0  0
   -5.0148   -0.8421   11.5735 C   0  0  0  0  0  0
   -0.5336    4.9666    8.3105 C   0  0  0  0  0  0
   -0.1022    3.9507   10.5815 C   0  0  0  0  0  0
    0.4453    4.8764    9.4876 C   0  0  0  0  0  0
   -5.9208   -1.2773   16.0952 C   0  0  0  0  0  0
   -0.0374    5.9682    7.2683 C   0  0  0  0  0  0
    0.8233    3.9409   11.7969 C   0  0  0  0  0  0
   -3.7784   -1.7066   11.7660 C   0  0  0  0  0  0
   -4.1144   -3.1791   11.6072 C   0  0  0  0  0  0
   -2.8875   -4.0549   11.7969 C   0  0  0  0  0  0
   -4.4273   -0.2401    9.3524 H   0  0  0  0  0  0
  1  2  2  0  0  0
  1  4  1  0  0  0
  1  6  1  0  0  0
  2  9  1  0  0  0
  2 10  1  0  0  0
  3  8  1  0  0  0
  3 10  2  0  0  0
  3 11  1  0  0  0
  4  7  2  0  0  0
  5  7  1  0  0  0
  5  9  1  0  0  0
  5 14  1  0  0  0
  6  8  1  0  0  0
  6 22  1  0  0  0
  7 13  1  0  0  0
  8 15  2  0  0  0
  9 18  2  0  0  0
 11 12  1  0  0  0
 11 19  2  0  0  0
 12 16  1  0  0  0
 12 17  1  0  0  0
 13 21  2  0  0  0
 13 26  1  0  0  0
 14 20  2  0  0  0
 15 32  1  0  0  0
 16 23  1  0  0  0
 17 24  1  0  0  0
 20 21  1  0  0  0
 22 29  1  0  0  0
 23 25  1  0  0  0
 23 27  1  0  0  0
 24 25  1  0  0  0
 24 28  1  0  0  0
 29 30  1  0  0  0
 30 31  1  0  0  0
M  END
>  <$CLUSTER>
662

>  <CHROM.0>
153.36047330,171.65272644,75.47861506

>  <CHROM.1>
-3.53151301,2.04381591,12.24079091,3.11845427,1.08889769,0.65394572

>  <INDEX>
356790

>  <Name>
InterBioScreen STOCK4S-52524

>  <RI>
-1.67511e+09

>  <Rbt.Current_Directory>
/aloy/home/acomajuncosa/PocketVec_v2/GitLab_repo

>  <Rbt.Executable>
rbdock ($Id: //depot/dev/client3/rdock/2021.1/src/exe/rbdock.cxx#4 $)

>  <Rbt.Library>
libRbt.so (2021.1, Build901 2021/07/19)

>  <Rbt.Parameter_File>
results/run_pocketvec/dock.prm

>  <Rbt.Receptor>
results/run_pocketvec/st_parameters.prm

>  <SCORE>
22.3384

>  <SCORE.INTER>
27.4351

>  <SCORE.INTER.CONST>
1

>  <SCORE.INTER.POLAR>
-0.429103

>  <SCORE.INTER.REPUL>
0

>  <SCORE.INTER.ROT>
4

>  <SCORE.INTER.VDW>
19.494

>  <SCORE.INTER.norm>
0.885003

>  <SCORE.INTRA>
-1.51168e-12

>  <SCORE.INTRA.DIHEDRAL>
-2.60947e-12

>  <SCORE.INTRA.DIHEDRAL.0>
10.4972

>  <SCORE.INTRA.POLAR>
0

>  <SCORE.INTRA.POLAR.0>
0

>  <SCORE.INTRA.REPUL>
0

>  <SCORE.INTRA.REPUL.0>
0

>  <SCORE.INTRA.VDW>
-2.06946e-13

>  <SCORE.INTRA.VDW.0>
-1.12849

>  <SCORE.INTRA.norm>
-4.87639e-14

>  <SCORE.RESTR>
0.0925611

>  <SCORE.RESTR.CAVITY>
0.0925611

>  <SCORE.RESTR.norm>
0.00298584

>  <SCORE.SYSTEM>
-5.18927

>  <SCORE.SYSTEM.CONST>
0

>  <SCORE.SYSTEM.DIHEDRAL>
2.52405

>  <SCORE.SYSTEM.POLAR>
-1.75874

>  <SCORE.SYSTEM.VDW>
-0.471581

>  <SCORE.SYSTEM.norm>
-0.167396

>  <SCORE.heavy>
31

>  <SCORE.norm>
0.720593

$$$$
Cerep CER0136666
  rDOCK(R)          3D
libRbt.so/2021.1/901 2021/07/19
 29 32  0  0  0  0  0  0  0  0999 V2000
   -4.1749    6.3420    8.6203 N   0  0  0  0  0  0
   -3.4014    9.1135    7.8524 N   0  0  0  0  0  0
   -4.0251    5.1115    9.1417 C   0  0  0  0  0  0
   -3.4946   10.2865    7.2364 C   0  0  0  0  0  0
   -4.8926    3.3794   12.5087 C   0  0  0  0  0  0
   -6.0315    1.7070   16.4919 C   0  0  0  0  0  0
   -4.7325    2.1150   13.0208 N   0  0  0  0  0  0
   -3.0069   10.3842    5.9669 N   0  0  0  0  0  0
   -3.7205    6.6868    7.2599 C   0  0  0  0  0  0
   -4.7810    7.5337    9.2451 C   0  0  0  0  0  0
   -2.7953    7.9218    7.2277 C   0  0  0  0  0  0
   -3.8559    8.7687    9.2128 C   0  0  0  0  0  0
   -5.0805    1.5668   14.2637 C   0  0  0  0  0  0
   -5.7075    2.3080   15.2717 C   0  0  0  0  0  0
   -5.7328    0.3655   16.7189 C   0  0  0  0  0  0
   -3.5026    4.1648    8.5460 O   0  0  0  0  0  0
   -4.5383    4.9053   10.5452 C   0  0  0  0  0  0
   -5.4201    4.3017   13.1409 O   0  0  0  0  0  0
   -5.1090   -0.3807   15.7248 C   0  0  0  0  0  0
   -4.3682    3.5387   11.1117 C   0  0  0  0  0  0
   -4.7847    0.2166   14.5041 C   0  0  0  0  0  0
   -6.7267    2.3033   17.6595 C   0  0  0  0  0  0
   -4.0772   11.4011    7.8552 C   0  0  0  0  0  0
   -6.3871    1.2856   18.7517 C   0  0  0  0  0  0
   -3.0963   11.5798    5.3276 C   0  0  0  0  0  0
   -6.1967   -0.0634   18.0527 C   0  0  0  0  0  0
   -4.1579   12.6184    7.1768 C   0  0  0  0  0  0
   -3.6586   12.7155    5.8847 C   0  0  0  0  0  0
   -4.2849    1.4646   12.3903 H   0  0  0  0  0  0
  1  3  1  0  0  0
  1  9  1  0  0  0
  1 10  1  0  0  0
  2  4  1  0  0  0
  2 11  1  0  0  0
  2 12  1  0  0  0
  3 16  2  0  0  0
  3 17  1  0  0  0
  4  8  2  0  0  0
  4 23  1  0  0  0
  5  7  1  0  0  0
  5 18  2  0  0  0
  5 20  1  0  0  0
  6 14  2  0  0  0
  6 15  1  0  0  0
  6 22  1  0  0  0
  7 13  1  0  0  0
  7 29  1  0  0  0
  8 25  1  0  0  0
  9 11  1  0  0  0
 10 12  1  0  0  0
 13 14  1  0  0  0
 13 21  2  0  0  0
 15 19  2  0  0  0
 15 26  1  0  0  0
 17 20  1  0  0  0
 19 21  1  0  0  0
 22 24  1  0  0  0
 23 27  2  0  0  0
 24 26  1  0  0  0
 25 28  2  0  0  0
 27 28  1  0  0  0
M  END
>  <$CLUSTER>
986

>  <CHROM.0>
177.30966534,171.74021768,-52.50625177

>  <CHROM.1>
-4.54353293,5.43268938,11.19555487,-1.08170745,-1.21374904,2.80869992

>  <INDEX>
189598

>  <Name>
Cerep CER0136666

>  <RI>
-1.67511e+09

>  <Rbt.Current_Directory>
/aloy/home/acomajuncosa/PocketVec_v2/GitLab_repo

>  <Rbt.Executable>
rbdock ($Id: //depot/dev/client3/rdock/2021.1/src/exe/rbdock.cxx#4 $)

>  <Rbt.Library>
libRbt.so (2021.1, Build901 2021/07/19)

>  <Rbt.Parameter_File>
results/run_pocketvec/dock.prm

>  <Rbt.Receptor>
results/run_pocketvec/st_parameters.prm

>  <SCORE>
-9.61684

>  <SCORE.INTER>
-7.71686

>  <SCORE.INTER.CONST>
1

>  <SCORE.INTER.POLAR>
-0.142068

>  <SCORE.INTER.REPUL>
0

>  <SCORE.INTER.ROT>
5

>  <SCORE.INTER.VDW>
-17.6338

>  <SCORE.INTER.norm>
-0.275602

>  <SCORE.INTRA>
1.67388e-12

>  <SCORE.INTRA.DIHEDRAL>
3.9968e-15

>  <SCORE.INTRA.DIHEDRAL.0>
2.19206

>  <SCORE.INTRA.POLAR>
0

>  <SCORE.INTRA.POLAR.0>
0

>  <SCORE.INTRA.REPUL>
0

>  <SCORE.INTRA.REPUL.0>
0

>  <SCORE.INTRA.VDW>
1.67188e-12

>  <SCORE.INTRA.VDW.0>
0.9009

>  <SCORE.INTRA.norm>
5.97815e-14

>  <SCORE.RESTR>
0

>  <SCORE.RESTR.CAVITY>
0

>  <SCORE.RESTR.norm>
0

>  <SCORE.SYSTEM>
-1.89998

>  <SCORE.SYSTEM.CONST>
0

>  <SCORE.SYSTEM.DIHEDRAL>
0.688184

>  <SCORE.SYSTEM.POLAR>
-0.994987

>  <SCORE.SYSTEM.REPUL>
0.058942

>  <SCORE.SYSTEM.VDW>
0.844174

>  <SCORE.SYSTEM.norm>
-0.0678565

>  <SCORE.heavy>
28

>  <SCORE.norm>
-0.343459

$$$$
Asinex BAS 02903336
  rDOCK(R)          3D
libRbt.so/2021.1/901 2021/07/19
 31 34  0  0  0  0  0  0  0  0999 V2000
   -0.3895    3.6783   11.7234 S   0  0  0  0  0  0
   -1.8982    4.1237   12.4227 N   0  0  0  0  0  0
   -3.1298    3.4244   11.9469 C   0  0  0  0  0  0
   -4.1108    3.2353   13.0938 C   0  0  0  0  0  0
   -6.4893    1.5117   16.4599 C   0  0  0  0  0  0
   -0.2885    2.2306   11.7054 O   0  0  0  0  0  0
    0.6837    4.4765   12.2865 O   0  0  0  0  0  0
   -0.6180    4.2012   10.0354 C   0  0  0  0  0  0
   -2.0244    5.5023   12.8409 C   0  0  0  0  0  0
   -5.7879    2.1271   15.4191 C   0  0  0  0  0  0
   -4.0970    1.9932   13.6555 N   0  0  0  0  0  0
   -6.2306    0.1845   16.7969 C   0  0  0  0  0  0
   -7.4413    2.0597   17.2336 O   0  0  0  0  0  0
   -6.9877   -0.2417   17.8117 O   0  0  0  0  0  0
   -4.8197    1.4159   14.7026 C   0  0  0  0  0  0
   -7.7628    0.9444   18.0972 C   0  0  0  0  0  0
   -4.8681    4.1200   13.4999 O   0  0  0  0  0  0
   -5.2688   -0.5309   16.0913 C   0  0  0  0  0  0
   -1.5090    5.8723   14.0885 C   0  0  0  0  0  0
   -2.5749    6.4771   12.0016 C   0  0  0  0  0  0
   -4.5675    0.0808   15.0505 C   0  0  0  0  0  0
   -2.1397    8.1675   13.6754 C   0  0  0  0  0  0
   -1.5737    7.2010   14.5063 C   0  0  0  0  0  0
   -2.6367    7.8058   12.4240 C   0  0  0  0  0  0
   -2.2168    9.7851   14.2025 Cl  0  0  0  0  0  0
   -1.1726    3.3241    9.0925 C   0  0  0  0  0  0
   -0.1986    5.4804    9.6362 C   0  0  0  0  0  0
   -0.3500    5.8797    8.3080 C   0  0  0  0  0  0
   -1.3196    3.7301    7.7650 C   0  0  0  0  0  0
   -0.9089    5.0058    7.3745 C   0  0  0  0  0  0
   -3.4309    1.3647   13.2293 H   0  0  0  0  0  0
  1  2  1  0  0  0
  1  6  2  0  0  0
  1  7  2  0  0  0
  1  8  1  0  0  0
  2  3  1  0  0  0
  2  9  1  0  0  0
  3  4  1  0  0  0
  4 11  1  0  0  0
  4 17  2  0  0  0
  5 10  2  0  0  0
  5 12  1  0  0  0
  5 13  1  0  0  0
  8 26  1  0  0  0
  8 27  2  0  0  0
  9 19  2  0  0  0
  9 20  1  0  0  0
 10 15  1  0  0  0
 11 15  1  0  0  0
 11 31  1  0  0  0
 12 14  1  0  0  0
 12 18  2  0  0  0
 13 16  1  0  0  0
 14 16  1  0  0  0
 15 21  2  0  0  0
 18 21  1  0  0  0
 19 23  1  0  0  0
 20 24  2  0  0  0
 22 23  2  0  0  0
 22 24  1  0  0  0
 22 25  1  0  0  0
 26 29  2  0  0  0
 27 28  1  0  0  0
 28 30  2  0  0  0
 29 30  1  0  0  0
M  END
>  <$CLUSTER>
94

>  <CHROM.0>
3.33900299,172.74323098,80.44126650

>  <CHROM.1>
-2.95358292,4.02179297,13.16691700,-0.28675842,-0.92438693,-2.78691185

>  <INDEX>
178545

>  <Name>
Asinex BAS 02903336

>  <RI>
-1.67511e+09

>  <Rbt.Current_Directory>
/aloy/home/acomajuncosa/PocketVec_v2/GitLab_repo

>  <Rbt.Executable>
rbdock ($Id: //depot/dev/client3/rdock/2021.1/src/exe/rbdock.cxx#4 $)

>  <Rbt.Library>
libRbt.so (2021.1, Build901 2021/07/19)

>  <Rbt.Parameter_File>
results/run_pocketvec/dock.prm

>  <Rbt.Receptor>
results/run_pocketvec/st_parameters.prm

>  <SCORE>
-11.934

>  <SCORE.INTER>
-6.46231

>  <SCORE.INTER.CONST>
1

>  <SCORE.INTER.POLAR>
0

>  <SCORE.INTER.REPUL>
0.123466

>  <SCORE.INTER.ROT>
6

>  <SCORE.INTER.VDW>
-18.4796

>  <SCORE.INTER.norm>
-0.21541

>  <SCORE.INTRA>
5.55112e-13

>  <SCORE.INTRA.DIHEDRAL>
8.25118e-13

>  <SCORE.INTRA.DIHEDRAL.0>
4.36343

>  <SCORE.INTRA.POLAR>
0

>  <SCORE.INTRA.POLAR.0>
0

>  <SCORE.INTRA.REPUL>
0

>  <SCORE.INTRA.REPUL.0>
0

>  <SCORE.INTRA.VDW>
1.42553e-13

>  <SCORE.INTRA.VDW.0>
-3.95056

>  <SCORE.INTRA.norm>
1.85037e-14

>  <SCORE.RESTR>
0

>  <SCORE.RESTR.CAVITY>
0

>  <SCORE.RESTR.norm>
0

>  <SCORE.SYSTEM>
-5.47173

>  <SCORE.SYSTEM.CONST>
0

>  <SCORE.SYSTEM.DIHEDRAL>
2.19777

>  <SCORE.SYSTEM.POLAR>
-1.79399

>  <SCORE.SYSTEM.VDW>
-0.471055

>  <SCORE.SYSTEM.norm>
-0.182391

>  <SCORE.heavy>
30

>  <SCORE.norm>
-0.397801

$$$$
Life Chemicals F0417-0114
  rDOCK(R)          3D
libRbt.so/2021.1/901 2021/07/19
 29 31  0  0  0  0  0  0  0  0999 V2000
   -3.7050    4.8444    8.7064 C   0  0  0  0  0  0
   -4.4863    4.1948   10.0803 S   0  0  0  0  0  0
   -4.2752    5.8280    7.9195 N   0  0  0  0  0  0
   -3.1144    3.1937   10.2964 C   0  0  0  0  0  0
   -2.5178    4.3233    8.4684 N   0  0  0  0  0  0
   -2.1708    3.3591    9.3964 N   0  0  0  0  0  0
   -5.5156    6.4235    8.1046 C   0  0  0  0  0  0
   -0.2290    2.2941   11.5915 C   0  0  0  0  0  0
   -5.7827    7.4552    7.0352 C   0  0  0  0  0  0
   -2.9907    2.0443   11.6156 S   0  0  0  0  0  0
    0.2197    2.9565   10.4994 N   0  0  0  0  0  0
   -6.3441    6.2064    8.9832 O   0  0  0  0  0  0
    0.1881    2.5182   12.7230 O   0  0  0  0  0  0
   -6.7166    8.4834    7.3793 C   0  0  0  0  0  0
   -5.2528    7.4299    5.7678 C   0  0  0  0  0  0
   -1.3669    1.3161   11.3105 C   0  0  0  0  0  0
    1.2224    3.9216   10.3280 C   0  0  0  0  0  0
   -6.4721    9.4326    5.1697 C   0  0  0  0  0  0
   -5.5814    8.4156    4.8329 C   0  0  0  0  0  0
   -7.0408    9.4663    6.4418 C   0  0  0  0  0  0
   -6.8557   10.6268    4.0196 Cl  0  0  0  0  0  0
    3.2076    5.8642    9.8992 C   0  0  0  0  0  0
    1.9672    4.4216   11.4008 C   0  0  0  0  0  0
    1.4863    4.4074    9.0376 C   0  0  0  0  0  0
    2.9543    5.3898   11.1850 C   0  0  0  0  0  0
    2.4728    5.3724    8.8250 C   0  0  0  0  0  0
    4.2621    6.8966    9.6745 C   0  0  0  0  0  0
   -3.7333    6.1460    7.1281 H   0  0  0  0  0  0
   -0.2594    2.7082    9.6456 H   0  0  0  0  0  0
  1  2  1  0  0  0
  1  3  1  0  0  0
  1  5  2  0  0  0
  2  4  1  0  0  0
  3  7  1  0  0  0
  3 28  1  0  0  0
  4  6  2  0  0  0
  4 10  1  0  0  0
  5  6  1  0  0  0
  7  9  1  0  0  0
  7 12  2  0  0  0
  8 11  1  0  0  0
  8 13  2  0  0  0
  8 16  1  0  0  0
  9 14  1  0  0  0
  9 15  2  0  0  0
 10 16  1  0  0  0
 11 17  1  0  0  0
 11 29  1  0  0  0
 14 20  2  0  0  0
 15 19  1  0  0  0
 17 23  2  0  0  0
 17 24  1  0  0  0
 18 19  2  0  0  0
 18 20  1  0  0  0
 18 21  1  0  0  0
 22 25  2  0  0  0
 22 26  1  0  0  0
 22 27  1  0  0  0
 23 25  1  0  0  0
 24 26  2  0  0  0
M  END
>  <$CLUSTER>
406

>  <CHROM.0>
171.87477358,171.58384720,81.99754346

>  <CHROM.1>
-2.65515109,5.47783236,8.86452894,2.34609221,-0.11943590,-0.66429109

>  <INDEX>
270131

>  <Name>
Life Chemicals F0417-0114

>  <RI>
-1.67511e+09

>  <Rbt.Current_Directory>
/aloy/home/acomajuncosa/PocketVec_v2/GitLab_repo

>  <Rbt.Executable>
rbdock ($Id: //depot/dev/client3/rdock/2021.1/src/exe/rbdock.cxx#4 $)

>  <Rbt.Library>
libRbt.so (2021.1, Build901 2021/07/19)

>  <Rbt.Parameter_File>
results/run_pocketvec/dock.prm

>  <Rbt.Receptor>
results/run_pocketvec/st_parameters.prm

>  <SCORE>
-8.97113

>  <SCORE.INTER>
-3.73858

>  <SCORE.INTER.CONST>
1

>  <SCORE.INTER.POLAR>
-0.464586

>  <SCORE.INTER.REPUL>
0.735348

>  <SCORE.INTER.ROT>
6

>  <SCORE.INTER.VDW>
-17.2357

>  <SCORE.INTER.norm>
-0.138466

>  <SCORE.INTRA>
-6.58584e-14

>  <SCORE.INTRA.DIHEDRAL>
1.38556e-12

>  <SCORE.INTRA.DIHEDRAL.0>
3.85604

>  <SCORE.INTRA.POLAR>
-1.0747e-13

>  <SCORE.INTRA.POLAR.0>
-0.361355

>  <SCORE.INTRA.REPUL>
0

>  <SCORE.INTRA.REPUL.0>
0

>  <SCORE.INTRA.VDW>
-3.93241e-13

>  <SCORE.INTRA.VDW.0>
-1.51264

>  <SCORE.INTRA.norm>
-2.4392e-15

>  <SCORE.RESTR>
0

>  <SCORE.RESTR.CAVITY>
0

>  <SCORE.RESTR.norm>
0

>  <SCORE.SYSTEM>
-5.23255

>  <SCORE.SYSTEM.CONST>
0

>  <SCORE.SYSTEM.DIHEDRAL>
2.64413

>  <SCORE.SYSTEM.POLAR>
-1.79399

>  <SCORE.SYSTEM.VDW>
-0.455055

>  <SCORE.SYSTEM.norm>
-0.193798

>  <SCORE.heavy>
27

>  <SCORE.norm>
-0.332264

$$$$
Life Chemicals F1359-1195
  rDOCK(R)          3D
libRbt.so/2021.1/901 2021/07/19
 29 31  0  0  0  0  0  0  0  0999 V2000
   -2.8976    3.5737   10.8964 C   0  0  0  0  0  0
   -2.3466    3.9475    9.7864 N   0  0  0  0  0  0
   -5.1288    1.4282   16.6625 S   0  0  0  0  0  0
   -4.1507    3.9613   11.3497 N   0  0  0  0  0  0
   -2.1302    2.4620   12.0843 S   0  0  0  0  0  0
   -3.5394    2.5843   13.1520 C   0  0  0  0  0  0
   -4.5092    3.4210   12.6032 C   0  0  0  0  0  0
   -1.0081    3.4497    9.4437 C   0  0  0  0  0  0
   -4.8915    2.1759   15.0850 C   0  0  0  0  0  0
   -3.7083    1.9557   14.3817 C   0  0  0  0  0  0
   -0.5248    3.9576    8.1696 C   0  0  0  0  0  0
   -5.6917    3.6384   13.3162 C   0  0  0  0  0  0
   -3.8220    1.1536   17.2366 O   0  0  0  0  0  0
   -6.1032    2.2016   17.4113 O   0  0  0  0  0  0
   -5.8316   -0.0436   16.2842 N   0  0  0  0  0  0
   -0.4280    2.6919   10.2002 O   0  0  0  0  0  0
   -5.8788    3.0140   14.5550 C   0  0  0  0  0  0
    0.4630    3.1411    7.5448 C   0  0  0  0  0  0
   -5.0218    4.8687   10.6119 C   0  0  0  0  0  0
    1.0262    3.5468    6.3328 C   0  0  0  0  0  0
    2.1917    2.5786    5.5558 Cl  0  0  0  0  0  0
   -0.8807    5.1523    7.5939 C   0  0  0  0  0  0
   -0.3135    5.5543    6.3827 C   0  0  0  0  0  0
   -5.7028    7.1737   10.3134 O   0  0  0  0  0  0
    0.6368    4.7524    5.7525 C   0  0  0  0  0  0
   -4.8118    6.3049   11.0675 C   0  0  0  0  0  0
   -5.5480    8.5421   10.7056 C   0  0  0  0  0  0
   -5.1757   -0.6056   15.7608 H   0  0  0  0  0  0
   -6.6599    0.1119   15.7272 H   0  0  0  0  0  0
  1  2  2  0  0  0
  1  4  1  0  0  0
  1  5  1  0  0  0
  2  8  1  0  0  0
  3  9  1  0  0  0
  3 13  2  0  0  0
  3 14  2  0  0  0
  3 15  1  0  0  0
  4  7  1  0  0  0
  4 19  1  0  0  0
  5  6  1  0  0  0
  6  7  1  0  0  0
  6 10  2  0  0  0
  7 12  2  0  0  0
  8 11  1  0  0  0
  8 16  2  0  0  0
  9 10  1  0  0  0
  9 17  2  0  0  0
 11 18  2  0  0  0
 11 22  1  0  0  0
 12 17  1  0  0  0
 15 28  1  0  0  0
 15 29  1  0  0  0
 18 20  1  0  0  0
 19 26  1  0  0  0
 20 21  1  0  0  0
 20 25  2  0  0  0
 22 23  2  0  0  0
 23 25  1  0  0  0
 24 26  1  0  0  0
 24 27  1  0  0  0
M  END
>  <$CLUSTER>
444

>  <CHROM.0>
-1.70401975,172.05211253,73.40318315

>  <CHROM.1>
-2.85118312,3.40327930,11.35527579,0.81477710,0.68940089,-0.83180579

>  <INDEX>
292670

>  <Name>
Life Chemicals F1359-1195

>  <RI>
-1.67511e+09

>  <Rbt.Current_Directory>
/aloy/home/acomajuncosa/PocketVec_v2/GitLab_repo

>  <Rbt.Executable>
rbdock ($Id: //depot/dev/client3/rdock/2021.1/src/exe/rbdock.cxx#4 $)

>  <Rbt.Library>
libRbt.so (2021.1, Build901 2021/07/19)

>  <Rbt.Parameter_File>
results/run_pocketvec/dock.prm

>  <Rbt.Receptor>
results/run_pocketvec/st_parameters.prm

>  <SCORE>
-13.6421

>  <SCORE.INTER>
-8.03871

>  <SCORE.INTER.CONST>
1

>  <SCORE.INTER.POLAR>
-2.1022

>  <SCORE.INTER.REPUL>
0.621127

>  <SCORE.INTER.ROT>
7

>  <SCORE.INTER.VDW>
-16.3969

>  <SCORE.INTER.norm>
-0.29773

>  <SCORE.INTRA>
-2.30882e-12

>  <SCORE.INTRA.DIHEDRAL>
-4.56524e-13

>  <SCORE.INTRA.DIHEDRAL.0>
6.22325

>  <SCORE.INTRA.POLAR>
0

>  <SCORE.INTRA.POLAR.0>
0

>  <SCORE.INTRA.REPUL>
0

>  <SCORE.INTRA.REPUL.0>
0

>  <SCORE.INTRA.VDW>
-2.08056e-12

>  <SCORE.INTRA.VDW.0>
0.7811

>  <SCORE.INTRA.norm>
-8.55118e-14

>  <SCORE.RESTR>
0

>  <SCORE.RESTR.CAVITY>
0

>  <SCORE.RESTR.norm>
0

>  <SCORE.SYSTEM>
-5.60339

>  <SCORE.SYSTEM.CONST>
0

>  <SCORE.SYSTEM.DIHEDRAL>
1.22948

>  <SCORE.SYSTEM.POLAR>
-1.7418

>  <SCORE.SYSTEM.VDW>
-0.296013

>  <SCORE.SYSTEM.norm>
-0.207533

>  <SCORE.heavy>
27

>  <SCORE.norm>
-0.505263

$$$$
Pyxis Discovery PYX 00003417
  rDOCK(R)          3D
libRbt.so/2021.1/901 2021/07/19
 35 39  0  0  0  0  0  0  0  0999 V2000
   -4.9085    3.0964   14.4660 C   0  0  0  0  0  0
   -4.5383    2.5034   13.2861 C   0  0  0  0  0  0
   -5.1877    2.0765   15.3538 N   0  0  0  0  0  0
   -4.9207    4.4592   14.6668 N   0  0  0  0  0  0
   -4.8605    0.8700   14.8035 N   0  0  0  0  0  0
   -4.5309    1.1160   13.5246 C   0  0  0  0  0  0
   -4.2071    3.3288   12.1819 C   0  0  0  0  0  0
   -4.2377    4.6643   12.2999 C   0  0  0  0  0  0
   -4.6040    5.3033   13.6025 C   0  0  0  0  0  0
   -4.1997    0.0209   12.6191 C   0  0  0  0  0  0
   -5.7371    2.1149   16.6653 C   0  0  0  0  0  0
   -4.6069    6.5277   13.6972 O   0  0  0  0  0  0
   -3.3899   -1.0374   13.0557 C   0  0  0  0  0  0
   -4.7000   -0.0010   11.3098 C   0  0  0  0  0  0
   -4.9971    6.3698   10.6138 N   0  3  0  0  0  0
   -3.8534    5.5787   11.1398 C   0  0  0  0  0  0
   -3.5736   -2.1008   10.8919 C   0  0  0  0  0  0
   -4.3850   -1.0574   10.4509 C   0  0  0  0  0  0
   -3.0767   -2.0916   12.1936 C   0  0  0  0  0  0
   -3.3179   -3.0682   10.0115 F   0  0  0  0  0  0
   -5.9667    7.9884    9.0953 C   0  0  0  0  0  0
   -4.6985    7.2675    9.5013 C   0  0  0  0  0  0
   -6.4708    3.2146   17.1254 C   0  0  0  0  0  0
   -5.5759    1.0019   17.5066 C   0  0  0  0  0  0
   -6.8091    7.4618    8.0979 C   0  0  0  0  0  0
   -6.3060    9.2301    9.6649 C   0  0  0  0  0  0
   -7.0034    3.2126   18.4187 C   0  0  0  0  0  0
   -6.1084    1.0087   18.7980 C   0  0  0  0  0  0
   -7.9715    8.1345    7.7140 C   0  0  0  0  0  0
   -7.4683    9.9002    9.2795 C   0  0  0  0  0  0
   -6.8183    2.1154   19.2561 C   0  0  0  0  0  0
   -8.2994    9.3534    8.3041 C   0  0  0  0  0  0
   -5.1557    4.8419   15.5715 H   0  0  0  0  0  0
   -5.3610    6.9289   11.3725 H   0  0  0  0  0  0
   -5.7056    5.7205   10.3047 H   0  0  0  0  0  0
  1  2  2  0  0  0
  1  3  1  0  0  0
  1  4  1  0  0  0
  2  6  1  0  0  0
  2  7  1  0  0  0
  3  5  1  0  0  0
  3 11  1  0  0  0
  4  9  1  0  0  0
  4 33  1  0  0  0
  5  6  2  0  0  0
  6 10  1  0  0  0
  7  8  2  0  0  0
  8  9  1  0  0  0
  8 16  1  0  0  0
  9 12  2  0  0  0
 10 13  1  0  0  0
 10 14  2  0  0  0
 11 23  2  0  0  0
 11 24  1  0  0  0
 13 19  2  0  0  0
 14 18  1  0  0  0
 15 16  1  0  0  0
 15 22  1  0  0  0
 15 34  1  0  0  0
 15 35  1  0  0  0
 17 18  2  0  0  0
 17 19  1  0  0  0
 17 20  1  0  0  0
 21 22  1  0  0  0
 21 25  2  0  0  0
 21 26  1  0  0  0
 23 27  1  0  0  0
 24 28  2  0  0  0
 25 29  1  0  0  0
 26 30  2  0  0  0
 27 31  2  0  0  0
 28 31  1  0  0  0
 29 32  2  0  0  0
 30 32  1  0  0  0
M  END
>  <$CLUSTER>
274

>  <CHROM.0>
2.97792600,171.92597725,73.91452754

>  <CHROM.1>
-5.20364979,3.36972821,12.75936502,1.01494349,-1.24034258,2.02465876

>  <INDEX>
614360

>  <Name>
Pyxis Discovery PYX 00003417

>  <RI>
-1.67511e+09

>  <Rbt.Current_Directory>
/aloy/home/acomajuncosa/PocketVec_v2/GitLab_repo

>  <Rbt.Executable>
rbdock ($Id: //depot/dev/client3/rdock/2021.1/src/exe/rbdock.cxx#4 $)

>  <Rbt.Library>
libRbt.so (2021.1, Build901 2021/07/19)

>  <Rbt.Parameter_File>
results/run_pocketvec/dock.prm

>  <Rbt.Receptor>
results/run_pocketvec/st_parameters.prm

>  <SCORE>
22.3925

>  <SCORE.INTER>
27.9993

>  <SCORE.INTER.CONST>
1

>  <SCORE.INTER.POLAR>
0

>  <SCORE.INTER.REPUL>
0

>  <SCORE.INTER.ROT>
6

>  <SCORE.INTER.VDW>
16.5993

>  <SCORE.INTER.norm>
0.874979

>  <SCORE.INTRA>
-7.54952e-15

>  <SCORE.INTRA.DIHEDRAL>
-4.67182e-13

>  <SCORE.INTRA.DIHEDRAL.0>
8.87578

>  <SCORE.INTRA.POLAR>
0

>  <SCORE.INTRA.POLAR.0>
0

>  <SCORE.INTRA.REPUL>
0

>  <SCORE.INTRA.REPUL.0>
0

>  <SCORE.INTRA.VDW>
2.26041e-13

>  <SCORE.INTRA.VDW.0>
-2.75073

>  <SCORE.INTRA.norm>
-2.35922e-16

>  <SCORE.RESTR>
0.00277049

>  <SCORE.RESTR.CAVITY>
0.00277049

>  <SCORE.RESTR.norm>
8.65778e-05

>  <SCORE.SYSTEM>
-5.6096

>  <SCORE.SYSTEM.CONST>
0

>  <SCORE.SYSTEM.DIHEDRAL>
1.30237

>  <SCORE.SYSTEM.POLAR>
-1.74601

>  <SCORE.SYSTEM.VDW>
-0.324345

>  <SCORE.SYSTEM.norm>
-0.1753

>  <SCORE.heavy>
32

>  <SCORE.norm>
0.699765

$$$$
Asinex ASN 09961559
  rDOCK(R)          3D
libRbt.so/2021.1/901 2021/07/19
 28 31  0  0  0  0  0  0  0  0999 V2000
   -5.4977    2.6221   15.6173 N   0  0  0  0  0  0
   -4.5715    6.7880    9.2548 C   0  0  0  0  0  0
   -4.6750    5.7984   10.1131 N   0  0  0  0  0  0
   -6.1365    2.6507   16.8482 C   0  0  0  0  0  0
   -4.2563    6.5770    7.9159 N   0  0  0  0  0  0
   -5.4805    3.6585   14.6637 C   0  0  0  0  0  0
   -4.9990    6.3037   11.3625 C   0  0  0  0  0  0
   -4.1203    7.5428    6.9282 C   0  0  0  0  0  0
   -4.8428    8.3623    9.8742 S   0  0  0  0  0  0
   -4.7408    3.2736   13.5491 C   0  0  0  0  0  0
   -5.1245    7.6789   11.4247 C   0  0  0  0  0  0
   -4.7128    1.4892   15.0789 C   0  0  0  0  0  0
   -5.1692    5.3916   12.5141 C   0  0  0  0  0  0
   -4.5742    4.1288   12.4631 C   0  0  0  0  0  0
   -6.0730    4.9080   14.7213 C   0  0  0  0  0  0
   -6.7868    3.5984   17.2862 O   0  0  0  0  0  0
   -4.1930    1.8932   13.6960 C   0  0  0  0  0  0
   -4.2452    8.7597    7.0262 O   0  0  0  0  0  0
   -5.9143    5.7783   13.6357 C   0  0  0  0  0  0
   -3.7738    6.9111    5.6026 C   0  0  0  0  0  0
   -5.9916    1.3937   17.6776 C   0  0  0  0  0  0
   -2.3271    6.3786    5.5900 C   0  0  0  0  0  0
   -3.9607    7.8821    4.4212 C   0  0  0  0  0  0
   -6.7928    0.2417   17.0383 C   0  0  0  0  0  0
   -6.3779    1.5743   19.1240 C   0  0  0  0  0  0
   -2.1122    6.2368    4.0432 C   0  0  0  0  0  0
   -3.1078    7.1536    3.3367 C   0  0  0  0  0  0
   -4.1108    5.6185    7.6331 H   0  0  0  0  0  0
  1  4  1  0  0  0
  1  6  1  0  0  0
  1 12  1  0  0  0
  2  3  2  0  0  0
  2  5  1  0  0  0
  2  9  1  0  0  0
  3  7  1  0  0  0
  4 16  2  0  0  0
  4 21  1  0  0  0
  5  8  1  0  0  0
  5 28  1  0  0  0
  6 10  1  0  0  0
  6 15  2  0  0  0
  7 11  2  0  0  0
  7 13  1  0  0  0
  8 18  2  0  0  0
  8 20  1  0  0  0
  9 11  1  0  0  0
 10 14  2  0  0  0
 10 17  1  0  0  0
 12 17  1  0  0  0
 13 14  1  0  0  0
 13 19  2  0  0  0
 15 19  1  0  0  0
 20 22  1  0  0  0
 20 23  1  0  0  0
 21 24  1  0  0  0
 21 25  1  0  0  0
 22 26  1  0  0  0
 23 27  1  0  0  0
 26 27  1  0  0  0
M  END
>  <$CLUSTER>
939

>  <CHROM.0>
2.97238945,172.15748564,75.21668473

>  <CHROM.1>
-4.83649321,5.14413856,11.42456771,-2.08703755,1.16304478,-0.64294411

>  <INDEX>
171136

>  <Name>
Asinex ASN 09961559

>  <RI>
-1.67511e+09

>  <Rbt.Current_Directory>
/aloy/home/acomajuncosa/PocketVec_v2/GitLab_repo

>  <Rbt.Executable>
rbdock ($Id: //depot/dev/client3/rdock/2021.1/src/exe/rbdock.cxx#4 $)

>  <Rbt.Library>
libRbt.so (2021.1, Build901 2021/07/19)

>  <Rbt.Parameter_File>
results/run_pocketvec/dock.prm

>  <Rbt.Receptor>
results/run_pocketvec/st_parameters.prm

>  <SCORE>
-13.3865

>  <SCORE.INTER>
-7.79494

>  <SCORE.INTER.CONST>
1

>  <SCORE.INTER.POLAR>
0

>  <SCORE.INTER.REPUL>
0

>  <SCORE.INTER.ROT>
4

>  <SCORE.INTER.VDW>
-17.1949

>  <SCORE.INTER.norm>
-0.288702

>  <SCORE.INTRA>
8.36575e-12

>  <SCORE.INTRA.DIHEDRAL>
1.24345e-13

>  <SCORE.INTRA.DIHEDRAL.0>
3.6502

>  <SCORE.INTRA.POLAR>
0

>  <SCORE.INTRA.POLAR.0>
0

>  <SCORE.INTRA.REPUL>
0

>  <SCORE.INTRA.REPUL.0>
0

>  <SCORE.INTRA.VDW>
8.30358e-12

>  <SCORE.INTRA.VDW.0>
0.927509

>  <SCORE.INTRA.norm>
3.09843e-13

>  <SCORE.RESTR>
0

>  <SCORE.RESTR.CAVITY>
0

>  <SCORE.RESTR.norm>
0

>  <SCORE.SYSTEM>
-5.59158

>  <SCORE.SYSTEM.CONST>
0

>  <SCORE.SYSTEM.DIHEDRAL>
1.45329

>  <SCORE.SYSTEM.POLAR>
-1.75663

>  <SCORE.SYSTEM.VDW>
-0.345694

>  <SCORE.SYSTEM.norm>
-0.207096

>  <SCORE.heavy>
27

>  <SCORE.norm>
-0.495797

$$$$
Pyxis Discovery PYX 00004219
  rDOCK(R)          3D
libRbt.so/2021.1/901 2021/07/19
 30 33  0  0  0  0  0  0  0  0999 V2000
   -5.7714    7.2319   11.7660 N   0  0  0  0  0  0
   -4.9629    6.8305   12.7016 C   0  0  0  0  0  0
   -5.3764    8.5314   11.6379 C   0  0  0  0  0  0
   -6.1210    3.7342   14.6231 N   0  0  0  0  0  0
   -4.3843    8.9182   12.4439 N   0  0  0  0  0  0
   -6.3144    3.5376   15.9612 C   0  0  0  0  0  0
   -4.1038    7.7557   13.1694 O   0  0  0  0  0  0
   -4.8682    5.4448   13.3368 C   0  0  0  0  0  0
   -6.1846    5.0730   14.0334 C   0  0  0  0  0  0
   -6.2246    2.1159   16.4549 C   0  0  0  0  0  0
   -6.0272    9.4267   10.6599 C   0  0  0  0  0  0
   -7.0650    8.9488    9.8456 C   0  0  0  0  0  0
   -7.6862    9.7894    8.9180 C   0  0  0  0  0  0
   -6.5514    4.4412   16.7667 O   0  0  0  0  0  0
   -7.2790   11.1157    8.7926 C   0  0  0  0  0  0
   -5.4728    1.1611   15.7830 C   0  0  0  0  0  0
   -5.6268   10.7644   10.5229 C   0  0  0  0  0  0
   -6.2504   11.6026    9.5943 C   0  0  0  0  0  0
   -5.8359    2.7156   13.6127 C   0  0  0  0  0  0
   -5.4168   -0.1440   16.2787 C   0  0  0  0  0  0
   -8.7133    9.3880    8.0850 O   0  0  0  0  0  0
   -4.7216   -1.1216   15.6943 F   0  0  0  0  0  0
   -4.4999    4.3896   12.2855 C   0  0  0  0  0  0
   -7.9486   11.8668    7.8529 O   0  0  0  0  0  0
   -6.9098    1.7888   17.6240 C   0  0  0  0  0  0
   -4.5149    2.9929   12.8989 C   0  0  0  0  0  0
   -6.8508    0.4834   18.1156 C   0  0  0  0  0  0
   -6.1064   -0.4833   17.4417 C   0  0  0  0  0  0
   -9.1569    8.0393    8.1851 C   0  0  0  0  0  0
   -7.5561   13.2260    7.6999 C   0  0  0  0  0  0
  1  2  2  0  0  0
  1  3  1  0  0  0
  2  7  1  0  0  0
  2  8  1  0  0  0
  3  5  2  0  0  0
  3 11  1  0  0  0
  4  6  1  0  0  0
  4  9  1  0  0  0
  4 19  1  0  0  0
  5  7  1  0  0  0
  6 10  1  0  0  0
  6 14  2  0  0  0
  8  9  1  0  0  0
  8 23  1  0  0  0
 10 16  2  0  0  0
 10 25  1  0  0  0
 11 12  1  0  0  0
 11 17  2  0  0  0
 12 13  2  0  0  0
 13 15  1  0  0  0
 13 21  1  0  0  0
 15 18  2  0  0  0
 15 24  1  0  0  0
 16 20  1  0  0  0
 17 18  1  0  0  0
 19 26  1  0  0  0
 20 22  1  0  0  0
 20 28  2  0  0  0
 21 29  1  0  0  0
 23 26  1  0  0  0
 24 30  1  0  0  0
 25 27  2  0  0  0
 27 28  1  0  0  0
M  END
>  <$CLUSTER>
938

>  <CHROM.0>
174.99273311,172.05744684,73.55053941

>  <CHROM.1>
-6.15642616,5.97165067,12.72491515,-1.73363693,0.79031490,2.60610026

>  <INDEX>
615056

>  <Name>
Pyxis Discovery PYX 00004219

>  <RI>
-1.67511e+09

>  <Rbt.Current_Directory>
/aloy/home/acomajuncosa/PocketVec_v2/GitLab_repo

>  <Rbt.Executable>
rbdock ($Id: //depot/dev/client3/rdock/2021.1/src/exe/rbdock.cxx#4 $)

>  <Rbt.Library>
libRbt.so (2021.1, Build901 2021/07/19)

>  <Rbt.Parameter_File>
results/run_pocketvec/dock.prm

>  <Rbt.Receptor>
results/run_pocketvec/st_parameters.prm

>  <SCORE>
-16.0793

>  <SCORE.INTER>
-10.624

>  <SCORE.INTER.CONST>
1

>  <SCORE.INTER.POLAR>
0

>  <SCORE.INTER.REPUL>
0

>  <SCORE.INTER.ROT>
5

>  <SCORE.INTER.VDW>
-21.024

>  <SCORE.INTER.norm>
-0.354134

>  <SCORE.INTRA>
-1.35277e-11

>  <SCORE.INTRA.DIHEDRAL>
-3.39728e-13

>  <SCORE.INTRA.DIHEDRAL.0>
3.44212

>  <SCORE.INTRA.POLAR>
0

>  <SCORE.INTRA.POLAR.0>
0

>  <SCORE.INTRA.REPUL>
-8.35929e-14

>  <SCORE.INTRA.REPUL.0>
0.0195845

>  <SCORE.INTRA.VDW>
-1.29399e-11

>  <SCORE.INTRA.VDW.0>
6.27866

>  <SCORE.INTRA.norm>
-4.50923e-13

>  <SCORE.RESTR>
0

>  <SCORE.RESTR.CAVITY>
0

>  <SCORE.RESTR.norm>
0

>  <SCORE.SYSTEM>
-5.45524

>  <SCORE.SYSTEM.CONST>
0

>  <SCORE.SYSTEM.DIHEDRAL>
1.28499

>  <SCORE.SYSTEM.POLAR>
-1.74302

>  <SCORE.SYSTEM.VDW>
-0.171486

>  <SCORE.SYSTEM.norm>
-0.181841

>  <SCORE.heavy>
30

>  <SCORE.norm>
-0.535975

$$$$
Asinex ASN 03271999
  rDOCK(R)          3D
libRbt.so/2021.1/901 2021/07/19
 29 31  0  0  0  0  0  0  0  0999 V2000
   -3.6348    4.1138   12.4411 C   0  0  0  0  0  0
   -2.5782    3.7973   13.4398 C   0  0  0  0  0  0
   -5.1299    3.8588   10.9523 N   0  0  0  0  0  0
   -4.2614    3.1592   11.7254 N   0  0  0  0  0  0
   -5.0046    5.1822   11.2167 N   0  0  0  0  0  0
   -1.2348    4.4178   13.0522 C   0  0  0  0  0  0
    3.5534    6.4303   11.3830 C   0  0  0  0  0  0
   -4.0529    5.3658   12.1664 N   0  5  0  0  0  0
   -0.6521    3.8232   11.9582 N   0  0  0  0  0  0
    2.6087    5.3347   10.9825 C   0  0  0  0  0  0
   -2.9908    4.2260   14.8488 C   0  0  0  0  0  0
   -0.7403    5.3764   13.6414 O   0  0  0  0  0  0
    0.5518    4.0883   11.2962 C   0  0  0  0  0  0
    1.4182    5.1134   11.6847 C   0  0  0  0  0  0
   -4.2185    3.5355   15.4016 C   0  0  0  0  0  0
    3.7380    7.3072   10.3585 F   0  0  0  0  0  0
    4.7790    5.9234   11.6894 F   0  0  0  0  0  0
    3.1624    7.1690   12.4591 F   0  0  0  0  0  0
   -4.0894    2.3194   16.0701 C   0  0  0  0  0  0
   -5.2266    1.6539   16.5302 C   0  0  0  0  0  0
   -4.9679    0.4771   17.2031 O   0  0  0  0  0  0
    2.9431    4.5361    9.8914 C   0  0  0  0  0  0
    2.0859    3.5135    9.4970 C   0  0  0  0  0  0
   -6.6199    3.3870   15.5960 C   0  0  0  0  0  0
    0.8979    3.2898   10.1947 C   0  0  0  0  0  0
   -5.4840    4.0541   15.1351 C   0  0  0  0  0  0
   -6.4904    2.1897   16.2934 C   0  0  0  0  0  0
   -6.0934   -0.2491   17.6838 C   0  0  0  0  0  0
   -1.1865    3.0623   11.5631 H   0  0  0  0  0  0
  1  2  1  0  0  0
  1  4  2  0  0  0
  1  8  1  0  0  0
  2  6  1  0  0  0
  2 11  1  0  0  0
  3  4  1  0  0  0
  3  5  2  0  0  0
  5  8  1  0  0  0
  6  9  1  0  0  0
  6 12  2  0  0  0
  7 10  1  0  0  0
  7 16  1  0  0  0
  7 17  1  0  0  0
  7 18  1  0  0  0
  9 13  1  0  0  0
  9 29  1  0  0  0
 10 14  2  0  0  0
 10 22  1  0  0  0
 11 15  1  0  0  0
 13 14  1  0  0  0
 13 25  2  0  0  0
 15 19  2  0  0  0
 15 26  1  0  0  0
 19 20  1  0  0  0
 20 21  1  0  0  0
 20 27  2  0  0  0
 21 28  1  0  0  0
 22 23  2  0  0  0
 23 25  1  0  0  0
 24 26  2  0  0  0
 24 27  1  0  0  0
M  END
>  <$CLUSTER>
877

>  <CHROM.0>
175.44379706,64.90023660,75.26220806

>  <CHROM.1>
-1.52762954,4.13440791,13.00194916,2.55920251,0.15535383,1.98546933

>  <INDEX>
130463

>  <Name>
Asinex ASN 03271999

>  <RI>
-1.67511e+09

>  <Rbt.Current_Directory>
/aloy/home/acomajuncosa/PocketVec_v2/GitLab_repo

>  <Rbt.Executable>
rbdock ($Id: //depot/dev/client3/rdock/2021.1/src/exe/rbdock.cxx#4 $)

>  <Rbt.Library>
libRbt.so (2021.1, Build901 2021/07/19)

>  <Rbt.Parameter_File>
results/run_pocketvec/dock.prm

>  <Rbt.Receptor>
results/run_pocketvec/st_parameters.prm

>  <SCORE>
-10.4095

>  <SCORE.INTER>
-8.11756

>  <SCORE.INTER.CONST>
1

>  <SCORE.INTER.POLAR>
-1.19293

>  <SCORE.INTER.REPUL>
0.164741

>  <SCORE.INTER.ROT>
7

>  <SCORE.INTER.VDW>
-17.2853

>  <SCORE.INTER.norm>
-0.289913

>  <SCORE.INTRA>
-4.60765e-12

>  <SCORE.INTRA.DIHEDRAL>
1.9762e-13

>  <SCORE.INTRA.DIHEDRAL.0>
3.76364

>  <SCORE.INTRA.POLAR>
0

>  <SCORE.INTRA.POLAR.0>
0

>  <SCORE.INTRA.REPUL>
0

>  <SCORE.INTRA.REPUL.0>
0

>  <SCORE.INTRA.VDW>
-4.70646e-12

>  <SCORE.INTRA.VDW.0>
-0.412677

>  <SCORE.INTRA.norm>
-1.64559e-13

>  <SCORE.RESTR>
0

>  <SCORE.RESTR.CAVITY>
0

>  <SCORE.RESTR.norm>
0

>  <SCORE.SYSTEM>
-2.29196

>  <SCORE.SYSTEM.CONST>
0

>  <SCORE.SYSTEM.DIHEDRAL>
1.31087

>  <SCORE.SYSTEM.POLAR>
-0.762007

>  <SCORE.SYSTEM.VDW>
-0.35657

>  <SCORE.SYSTEM.norm>
-0.0818557

>  <SCORE.heavy>
28

>  <SCORE.norm>
-0.371769

$$$$
InterBioScreen STOCK4S-65808
  rDOCK(R)          3D
libRbt.so/2021.1/901 2021/07/19
 25 26  0  0  0  0  0  0  0  0999 V2000
   -4.1362    1.6998   15.1097 C   0  0  0  0  0  0
   -5.6524    2.2034   15.7168 S   0  0  0  0  0  0
   -3.4625    0.9184   15.9289 N   0  0  0  0  0  0
   -4.1451    0.6810   17.1083 N   0  0  0  0  0  0
   -3.6658    2.0850   13.8678 N   0  0  0  0  0  0
   -5.3066    1.2954   17.1259 C   0  0  0  0  0  0
   -4.3133    2.9024   12.9514 C   0  0  0  0  0  0
   -3.2664    4.1438    9.4278 C   0  0  0  0  0  0
   -3.8552    4.9445    8.4743 N   0  0  0  0  0  0
   -3.4011    5.3503    7.2029 C   0  0  0  0  0  0
   -2.1649    4.9589    6.6769 C   0  0  0  0  0  0
   -5.4114    3.4404   13.0504 O   0  0  0  0  0  0
   -2.1599    3.6257    9.2839 O   0  0  0  0  0  0
   -3.4761    3.0892   11.7097 C   0  0  0  0  0  0
   -1.7694    5.3944    5.4082 C   0  0  0  0  0  0
   -4.1220    3.9749   10.6532 C   0  0  0  0  0  0
   -0.1257    4.8534    4.7440 Br  0  0  0  0  0  0
   -6.2756    1.2336   18.2677 C   0  0  0  0  0  0
   -3.8304    6.6167    5.1689 C   0  0  0  0  0  0
   -4.2291    6.1837    6.4360 C   0  0  0  0  0  0
   -2.5996    6.2216    4.6552 C   0  0  0  0  0  0
   -5.9601    2.2779   19.3262 C   0  0  0  0  0  0
   -6.9429    2.2225   20.4944 C   0  0  0  0  0  0
   -2.7570    1.7355   13.5998 H   0  0  0  0  0  0
   -4.7656    5.3007    8.7292 H   0  0  0  0  0  0
  1  2  1  0  0  0
  1  3  2  0  0  0
  1  5  1  0  0  0
  2  6  1  0  0  0
  3  4  1  0  0  0
  4  6  2  0  0  0
  5  7  1  0  0  0
  5 24  1  0  0  0
  6 18  1  0  0  0
  7 12  2  0  0  0
  7 14  1  0  0  0
  8  9  1  0  0  0
  8 13  2  0  0  0
  8 16  1  0  0  0
  9 10  1  0  0  0
  9 25  1  0  0  0
 10 11  2  0  0  0
 10 20  1  0  0  0
 11 15  1  0  0  0
 14 16  1  0  0  0
 15 17  1  0  0  0
 15 21  2  0  0  0
 18 22  1  0  0  0
 19 20  2  0  0  0
 19 21  1  0  0  0
 22 23  1  0  0  0
M  END
>  <$CLUSTER>
554

>  <CHROM.0>
171.59571009,70.48042815,67.56130336

>  <CHROM.1>
-3.39297364,3.63231483,10.80741765,-1.92991772,0.49964056,-1.11168945

>  <INDEX>
358888

>  <Name>
InterBioScreen STOCK4S-65808

>  <RI>
-1.67511e+09

>  <Rbt.Current_Directory>
/aloy/home/acomajuncosa/PocketVec_v2/GitLab_repo

>  <Rbt.Executable>
rbdock ($Id: //depot/dev/client3/rdock/2021.1/src/exe/rbdock.cxx#4 $)

>  <Rbt.Library>
libRbt.so (2021.1, Build901 2021/07/19)

>  <Rbt.Parameter_File>
results/run_pocketvec/dock.prm

>  <Rbt.Receptor>
results/run_pocketvec/st_parameters.prm

>  <SCORE>
-4.66561

>  <SCORE.INTER>
-2.39785

>  <SCORE.INTER.CONST>
1

>  <SCORE.INTER.POLAR>
-2.14033

>  <SCORE.INTER.REPUL>
0.200794

>  <SCORE.INTER.ROT>
7

>  <SCORE.INTER.VDW>
-8.52471

>  <SCORE.INTER.norm>
-0.104254

>  <SCORE.INTRA>
3.90665e-12

>  <SCORE.INTRA.DIHEDRAL>
3.69038e-13

>  <SCORE.INTRA.DIHEDRAL.0>
3.53528

>  <SCORE.INTRA.POLAR>
0

>  <SCORE.INTRA.POLAR.0>
0

>  <SCORE.INTRA.REPUL>
0

>  <SCORE.INTRA.REPUL.0>
0

>  <SCORE.INTRA.VDW>
3.72213e-12

>  <SCORE.INTRA.VDW.0>
-0.522339

>  <SCORE.INTRA.norm>
1.69854e-13

>  <SCORE.RESTR>
0

>  <SCORE.RESTR.CAVITY>
0

>  <SCORE.RESTR.norm>
0

>  <SCORE.SYSTEM>
-2.26776

>  <SCORE.SYSTEM.CONST>
0

>  <SCORE.SYSTEM.DIHEDRAL>
0.989163

>  <SCORE.SYSTEM.POLAR>
-0.697187

>  <SCORE.SYSTEM.VDW>
-0.391907

>  <SCORE.SYSTEM.norm>
-0.0985984

>  <SCORE.heavy>
23

>  <SCORE.norm>
-0.202853

$$$$
Life Chemicals F0579-0521
  rDOCK(R)          3D
libRbt.so/2021.1/901 2021/07/19
 30 33  0  0  0  0  0  0  0  0999 V2000
   -4.3774    5.3362   10.8229 N   0  0  0  0  0  0
   -4.0600    4.0897   11.2854 C   0  0  0  0  0  0
   -5.0979    6.2404   11.5581 C   0  0  0  0  0  0
   -5.4853    5.7300   12.8783 C   0  0  0  0  0  0
   -4.4001    3.6309   12.4498 N   0  0  0  0  0  0
   -5.1262    4.4956   13.2320 C   0  0  0  0  0  0
   -3.3118    2.8461   10.2456 S   0  0  0  0  0  0
   -6.3986    6.6143   14.0323 S   0  0  0  0  0  0
   -3.8093    5.8063    9.5259 C   0  0  0  0  0  0
   -5.3903    7.3630   11.1532 O   0  0  0  0  0  0
   -3.1573    1.1447   12.4378 C   0  0  0  0  0  0
   -3.4426    1.7764   13.5995 N   0  0  0  0  0  0
   -5.6007    4.0907   14.5961 C   0  0  0  0  0  0
   -3.6125    0.0426   12.1496 O   0  0  0  0  0  0
   -2.3144    1.9642   11.4677 C   0  0  0  0  0  0
   -2.4377    5.7396    9.2336 C   0  0  0  0  0  0
   -4.6715    6.3945    8.5865 C   0  0  0  0  0  0
   -4.1770    1.3864   14.7291 C   0  0  0  0  0  0
   -6.0716    5.3542   15.3247 C   0  0  0  0  0  0
   -2.8180    6.7822    7.0855 C   0  0  0  0  0  0
   -1.9468    6.2205    8.0177 C   0  0  0  0  0  0
   -4.1772    6.8724    7.3710 C   0  0  0  0  0  0
   -5.6407    0.6874   17.0249 C   0  0  0  0  0  0
   -2.2683    7.2075    5.9467 F   0  0  0  0  0  0
   -4.8319    0.1530   14.8039 C   0  0  0  0  0  0
   -4.2659    2.2651   15.8204 C   0  0  0  0  0  0
   -4.9929    1.9172   16.9612 C   0  0  0  0  0  0
   -5.5602   -0.1926   15.9474 C   0  0  0  0  0  0
   -6.4190    0.3142   18.2429 C   0  0  0  0  0  0
   -3.0528    2.7059   13.6665 H   0  0  0  0  0  0
  1  2  1  0  0  0
  1  3  1  0  0  0
  1  9  1  0  0  0
  2  5  2  0  0  0
  2  7  1  0  0  0
  3  4  1  0  0  0
  3 10  2  0  0  0
  4  6  2  0  0  0
  4  8  1  0  0  0
  5  6  1  0  0  0
  6 13  1  0  0  0
  7 15  1  0  0  0
  8 19  1  0  0  0
  9 16  2  0  0  0
  9 17  1  0  0  0
 11 12  1  0  0  0
 11 14  2  0  0  0
 11 15  1  0  0  0
 12 18  1  0  0  0
 12 30  1  0  0  0
 13 19  1  0  0  0
 16 21  1  0  0  0
 17 22  2  0  0  0
 18 25  1  0  0  0
 18 26  2  0  0  0
 20 21  2  0  0  0
 20 22  1  0  0  0
 20 24  1  0  0  0
 23 27  2  0  0  0
 23 28  1  0  0  0
 23 29  1  0  0  0
 25 28  2  0  0  0
 26 27  1  0  0  0
M  END
>  <$CLUSTER>
217

>  <CHROM.0>
-0.21448061,171.50413909,73.70644344

>  <CHROM.1>
-4.36572628,3.96666598,12.22655910,1.19059133,0.99349925,-0.67090232

>  <INDEX>
275208

>  <Name>
Life Chemicals F0579-0521

>  <RI>
-1.67511e+09

>  <Rbt.Current_Directory>
/aloy/home/acomajuncosa/PocketVec_v2/GitLab_repo

>  <Rbt.Executable>
rbdock ($Id: //depot/dev/client3/rdock/2021.1/src/exe/rbdock.cxx#4 $)

>  <Rbt.Library>
libRbt.so (2021.1, Build901 2021/07/19)

>  <Rbt.Parameter_File>
results/run_pocketvec/dock.prm

>  <Rbt.Receptor>
results/run_pocketvec/st_parameters.prm

>  <SCORE>
-15.9985

>  <SCORE.INTER>
-10.39

>  <SCORE.INTER.CONST>
1

>  <SCORE.INTER.POLAR>
0

>  <SCORE.INTER.REPUL>
0

>  <SCORE.INTER.ROT>
5

>  <SCORE.INTER.VDW>
-20.79

>  <SCORE.INTER.norm>
-0.358276

>  <SCORE.INTRA>
3.64064e-12

>  <SCORE.INTRA.DIHEDRAL>
5.70211e-13

>  <SCORE.INTRA.DIHEDRAL.0>
11.0608

>  <SCORE.INTRA.POLAR>
0

>  <SCORE.INTRA.POLAR.0>
0

>  <SCORE.INTRA.REPUL>
0

>  <SCORE.INTRA.REPUL.0>
0

>  <SCORE.INTRA.VDW>
3.35554e-12

>  <SCORE.INTRA.VDW.0>
4.6361

>  <SCORE.INTRA.norm>
1.25539e-13

>  <SCORE.RESTR>
0

>  <SCORE.RESTR.CAVITY>
0

>  <SCORE.RESTR.norm>
0

>  <SCORE.SYSTEM>
-5.60851

>  <SCORE.SYSTEM.CONST>
0

>  <SCORE.SYSTEM.DIHEDRAL>
1.30223

>  <SCORE.SYSTEM.POLAR>
-1.7443

>  <SCORE.SYSTEM.VDW>
-0.329005

>  <SCORE.SYSTEM.norm>
-0.193397

>  <SCORE.heavy>
29

>  <SCORE.norm>
-0.551673

$$$$
Chem T&I UZI/1102918
  rDOCK(R)          3D
libRbt.so/2021.1/901 2021/07/19
 28 30  0  0  0  0  0  0  0  0999 V2000
   -1.0035    2.0115   11.2839 S   0  0  0  0  0  0
   -0.6435    7.1400    6.5934 S   0  0  0  0  0  0
   -2.2096    3.0687   12.0544 C   0  0  0  0  0  0
   -1.5348    2.0722    9.6546 N   0  0  0  0  0  0
   -0.8980    5.6595    7.5085 C   0  0  0  0  0  0
    0.2958    2.6353   11.4333 O   0  0  0  0  0  0
   -1.2404    0.6692   11.7814 O   0  0  0  0  0  0
   -3.3933    2.5278   12.5409 C   0  0  0  0  0  0
    0.6197    7.0152    5.8943 O   0  0  0  0  0  0
   -1.8670    7.4283    5.8718 O   0  0  0  0  0  0
   -0.4686    8.2623    7.8632 N   0  0  0  0  0  0
   -4.3188    3.3662   13.1633 C   0  0  0  0  0  0
   -1.9263    4.4289   12.1804 C   0  0  0  0  0  0
   -1.3037    3.2817    8.9127 C   0  0  0  0  0  0
   -4.0520    4.7295   13.2942 C   0  0  0  0  0  0
   -2.1909    5.2633    7.8473 C   0  0  0  0  0  0
    0.1919    4.8673    7.8690 C   0  0  0  0  0  0
   -2.8574    5.2586   12.8037 C   0  0  0  0  0  0
   -2.3964    4.0745    8.5499 C   0  0  0  0  0  0
   -0.0079    3.6787    8.5718 C   0  0  0  0  0  0
   -5.5397    2.8445   13.6686 C   0  0  0  0  0  0
   -1.6081    8.5477    8.7511 C   0  0  0  0  0  0
   -5.0064    5.5700   13.9324 C   0  0  0  0  0  0
   -1.3918    9.8889    9.4290 C   0  0  0  0  0  0
   -6.4668    3.6803   14.2924 C   0  0  0  0  0  0
   -6.2010    5.0399   14.4240 C   0  0  0  0  0  0
   -1.9968    1.2810    9.2287 H   0  0  0  0  0  0
   -0.1992    9.1398    7.4428 H   0  0  0  0  0  0
  1  3  1  0  0  0
  1  4  1  0  0  0
  1  6  2  0  0  0
  1  7  2  0  0  0
  2  5  1  0  0  0
  2  9  2  0  0  0
  2 10  2  0  0  0
  2 11  1  0  0  0
  3  8  2  0  0  0
  3 13  1  0  0  0
  4 14  1  0  0  0
  4 27  1  0  0  0
  5 16  2  0  0  0
  5 17  1  0  0  0
  8 12  1  0  0  0
 11 22  1  0  0  0
 11 28  1  0  0  0
 12 15  2  0  0  0
 12 21  1  0  0  0
 13 18  2  0  0  0
 14 19  2  0  0  0
 14 20  1  0  0  0
 15 18  1  0  0  0
 15 23  1  0  0  0
 16 19  1  0  0  0
 17 20  2  0  0  0
 21 25  2  0  0  0
 22 24  1  0  0  0
 23 26  2  0  0  0
 25 26  1  0  0  0
M  END
>  <$CLUSTER>
473

>  <CHROM.0>
176.50282949,171.62808579,76.19360838

>  <CHROM.1>
-2.00053817,4.75733450,10.16346253,-2.22454415,0.81928470,-0.49703936

>  <INDEX>
647335

>  <Name>
Chem T&I UZI/1102918

>  <RI>
-1.67511e+09

>  <Rbt.Current_Directory>
/aloy/home/acomajuncosa/PocketVec_v2/GitLab_repo

>  <Rbt.Executable>
rbdock ($Id: //depot/dev/client3/rdock/2021.1/src/exe/rbdock.cxx#4 $)

>  <Rbt.Library>
libRbt.so (2021.1, Build901 2021/07/19)

>  <Rbt.Parameter_File>
results/run_pocketvec/dock.prm

>  <Rbt.Receptor>
results/run_pocketvec/st_parameters.prm

>  <SCORE>
-7.61416

>  <SCORE.INTER>
-2.18054

>  <SCORE.INTER.CONST>
1

>  <SCORE.INTER.POLAR>
0

>  <SCORE.INTER.REPUL>
0

>  <SCORE.INTER.ROT>
6

>  <SCORE.INTER.VDW>
-13.5805

>  <SCORE.INTER.norm>
-0.0838671

>  <SCORE.INTRA>
1.14797e-12

>  <SCORE.INTRA.DIHEDRAL>
5.02709e-13

>  <SCORE.INTRA.DIHEDRAL.0>
15.5211

>  <SCORE.INTRA.POLAR>
0

>  <SCORE.INTRA.POLAR.0>
0

>  <SCORE.INTRA.REPUL>
0

>  <SCORE.INTRA.REPUL.0>
0

>  <SCORE.INTRA.VDW>
8.96616e-13

>  <SCORE.INTRA.VDW.0>
-2.76129

>  <SCORE.INTRA.norm>
4.41527e-14

>  <SCORE.RESTR>
0

>  <SCORE.RESTR.CAVITY>
0

>  <SCORE.RESTR.norm>
0

>  <SCORE.SYSTEM>
-5.43362

>  <SCORE.SYSTEM.CONST>
0

>  <SCORE.SYSTEM.DIHEDRAL>
1.64403

>  <SCORE.SYSTEM.POLAR>
-1.76448

>  <SCORE.SYSTEM.VDW>
-0.256404

>  <SCORE.SYSTEM.norm>
-0.208985

>  <SCORE.heavy>
26

>  <SCORE.norm>
-0.292852

$$$$
Asinex ASN 06916822
  rDOCK(R)          3D
libRbt.so/2021.1/901 2021/07/19
 30 33  0  0  0  0  0  0  0  0999 V2000
   -5.5997    6.8894    8.8809 C   0  0  0  0  0  0
   -6.2343    8.0937    8.8111 N   0  0  0  0  0  0
   -5.3190    6.5897    7.5594 C   0  0  0  0  0  0
   -5.3011    6.1515    9.9613 N   0  0  0  0  0  0
   -6.3425    8.5156    7.5338 N   0  0  0  0  0  0
   -5.7811    7.5936    6.7554 N   0  0  0  0  0  0
   -4.3247    4.5959    8.3527 N   0  0  0  0  0  0
   -4.6620    5.0177    9.5958 C   0  0  0  0  0  0
   -4.6575    5.3941    7.3085 C   0  0  0  0  0  0
   -3.0445    1.6301   11.7807 N   0  0  0  0  0  0
   -2.3342    0.4756   11.6397 C   0  0  0  0  0  0
   -6.7586    8.8925    9.8942 C   0  0  0  0  0  0
   -4.2666    4.0800   10.7753 C   0  0  0  0  0  0
   -2.3773    2.9226   11.9661 C   0  0  0  0  0  0
   -4.5022    1.7842   11.7737 C   0  0  0  0  0  0
   -1.1021    0.4147   11.6548 O   0  0  0  0  0  0
   -4.9672    2.7242   10.6716 C   0  0  0  0  0  0
   -2.7503    3.9128   10.8713 C   0  0  0  0  0  0
   -4.3380    5.0091    6.0634 O   0  0  0  0  0  0
   -5.7528    9.9154   10.3926 C   0  0  0  0  0  0
   -3.8801   11.7972   11.3074 C   0  0  0  0  0  0
   -5.8181   11.2498    9.9648 C   0  0  0  0  0  0
   -4.7272    9.5313   11.2700 C   0  0  0  0  0  0
   -4.8878   12.1866   10.4236 C   0  0  0  0  0  0
   -3.7982   10.4699   11.7286 C   0  0  0  0  0  0
   -3.1329   -0.7900   11.4558 C   0  0  0  0  0  0
   -2.8900   12.7982   11.8031 C   0  0  0  0  0  0
   -2.3476   -2.0410   11.3014 C   0  0  0  0  0  0
   -3.1821   -3.2781   11.1210 C   0  0  0  0  0  0
   -3.8815    4.1668    6.0034 H   0  0  0  0  0  0
  1  2  1  0  0  0
  1  3  1  0  0  0
  1  4  2  0  0  0
  2  5  1  0  0  0
  2 12  1  0  0  0
  3  6  1  0  0  0
  3  9  2  0  0  0
  4  8  1  0  0  0
  5  6  2  0  0  0
  7  8  2  0  0  0
  7  9  1  0  0  0
  8 13  1  0  0  0
  9 19  1  0  0  0
 10 11  1  0  0  0
 10 14  1  0  0  0
 10 15  1  0  0  0
 11 16  2  0  0  0
 11 26  1  0  0  0
 12 20  1  0  0  0
 13 17  1  0  0  0
 13 18  1  0  0  0
 14 18  1  0  0  0
 15 17  1  0  0  0
 19 30  1  0  0  0
 20 22  2  0  0  0
 20 23  1  0  0  0
 21 24  2  0  0  0
 21 25  1  0  0  0
 21 27  1  0  0  0
 22 24  1  0  0  0
 23 25  2  0  0  0
 26 28  1  0  0  0
 28 29  1  0  0  0
M  END
>  <$CLUSTER>
937

>  <CHROM.0>
-0.84458145,171.85884779,73.96499844

>  <CHROM.1>
-4.27404616,5.48247067,10.08558344,1.99632084,-1.06579356,0.25940537

>  <INDEX>
164267

>  <Name>
Asinex ASN 06916822

>  <RI>
-1.67511e+09

>  <Rbt.Current_Directory>
/aloy/home/acomajuncosa/PocketVec_v2/GitLab_repo

>  <Rbt.Executable>
rbdock ($Id: //depot/dev/client3/rdock/2021.1/src/exe/rbdock.cxx#4 $)

>  <Rbt.Library>
libRbt.so (2021.1, Build901 2021/07/19)

>  <Rbt.Parameter_File>
results/run_pocketvec/dock.prm

>  <Rbt.Receptor>
results/run_pocketvec/st_parameters.prm

>  <SCORE>
-13.3177

>  <SCORE.INTER>
-7.70866

>  <SCORE.INTER.CONST>
1

>  <SCORE.INTER.POLAR>
-0.656671

>  <SCORE.INTER.REPUL>
0.0382639

>  <SCORE.INTER.ROT>
5

>  <SCORE.INTER.VDW>
-16.0673

>  <SCORE.INTER.norm>
-0.265816

>  <SCORE.INTRA>
4.44089e-14

>  <SCORE.INTRA.DIHEDRAL>
2.62013e-13

>  <SCORE.INTRA.DIHEDRAL.0>
4.95425

>  <SCORE.INTRA.POLAR>
0

>  <SCORE.INTRA.POLAR.0>
0

>  <SCORE.INTRA.REPUL>
0

>  <SCORE.INTRA.REPUL.0>
0

>  <SCORE.INTRA.VDW>
-8.65974e-14

>  <SCORE.INTRA.VDW.0>
-1.62303

>  <SCORE.INTRA.norm>
1.53134e-15

>  <SCORE.RESTR>
0

>  <SCORE.RESTR.CAVITY>
0

>  <SCORE.RESTR.norm>
0

>  <SCORE.SYSTEM>
-5.60904

>  <SCORE.SYSTEM.CONST>
0

>  <SCORE.SYSTEM.DIHEDRAL>
1.30855

>  <SCORE.SYSTEM.POLAR>
-1.74643

>  <SCORE.SYSTEM.VDW>
-0.325469

>  <SCORE.SYSTEM.norm>
-0.193415

>  <SCORE.heavy>
29

>  <SCORE.norm>
-0.459231

$$$$
Asinex ASN 04361294
  rDOCK(R)          3D
libRbt.so/2021.1/901 2021/07/19
 26 28  0  0  0  0  0  0  0  0999 V2000
   -4.3855    2.4559   11.0776 S   0  0  0  0  0  0
    1.6748    4.1304   11.7537 S   0  0  0  0  0  0
   -5.0617    2.8189   12.5647 N   0  0  0  0  0  0
    2.3354    3.8214   10.2351 N   0  0  0  0  0  0
   -2.6924    2.9243   11.2761 C   0  0  0  0  0  0
   -0.0337    3.6407   11.5335 C   0  0  0  0  0  0
   -4.9935    3.3355   10.0933 O   0  0  0  0  0  0
   -4.4542    1.0153   10.9042 O   0  0  0  0  0  0
    2.8492    4.4406    7.9442 C   0  0  0  0  0  0
    2.5886    3.2175    6.7743 S   0  0  0  0  0  0
    2.3082    3.2136   12.6882 O   0  0  0  0  0  0
    1.7340    5.5636   11.9874 O   0  0  0  0  0  0
    1.8744    4.6182    9.0940 C   0  0  0  0  0  0
    3.9807    3.6794    5.8948 C   0  0  0  0  0  0
    3.9664    5.1926    7.6566 C   0  0  0  0  0  0
    4.6252    4.7482    6.4748 C   0  0  0  0  0  0
   -2.2935    4.2279   10.9789 C   0  0  0  0  0  0
   -1.7558    1.9839   11.7097 C   0  0  0  0  0  0
   -0.4155    2.3460   11.8474 C   0  0  0  0  0  0
   -0.9535    4.5960   11.1139 C   0  0  0  0  0  0
   -4.6612    1.9879   13.7315 C   0  0  0  0  0  0
   -5.1908    4.2530   12.9400 C   0  0  0  0  0  0
   -6.1333    4.4667   14.1199 C   0  0  0  0  0  0
   -5.5957    2.1658   14.9254 C   0  0  0  0  0  0
   -5.7349    3.6279   15.3247 C   0  0  0  0  0  0
    2.1451    2.8533   10.0184 H   0  0  0  0  0  0
  1  3  1  0  0  0
  1  5  1  0  0  0
  1  7  2  0  0  0
  1  8  2  0  0  0
  2  4  1  0  0  0
  2  6  1  0  0  0
  2 11  2  0  0  0
  2 12  2  0  0  0
  3 21  1  0  0  0
  3 22  1  0  0  0
  4 13  1  0  0  0
  4 26  1  0  0  0
  5 17  1  0  0  0
  5 18  2  0  0  0
  6 19  2  0  0  0
  6 20  1  0  0  0
  9 10  1  0  0  0
  9 13  1  0  0  0
  9 15  2  0  0  0
 10 14  1  0  0  0
 14 16  2  0  0  0
 15 16  1  0  0  0
 17 20  2  0  0  0
 18 19  1  0  0  0
 21 24  1  0  0  0
 22 23  1  0  0  0
 23 25  1  0  0  0
 24 25  1  0  0  0
M  END
>  <$CLUSTER>
283

>  <CHROM.0>
-0.15677184,173.53417767,73.46389706

>  <CHROM.1>
-0.97040947,3.48849324,10.88023686,2.64429659,0.25577123,1.37654661

>  <INDEX>
137208

>  <Name>
Asinex ASN 04361294

>  <RI>
-1.67511e+09

>  <Rbt.Current_Directory>
/aloy/home/acomajuncosa/PocketVec_v2/GitLab_repo

>  <Rbt.Executable>
rbdock ($Id: //depot/dev/client3/rdock/2021.1/src/exe/rbdock.cxx#4 $)

>  <Rbt.Library>
libRbt.so (2021.1, Build901 2021/07/19)

>  <Rbt.Parameter_File>
results/run_pocketvec/dock.prm

>  <Rbt.Receptor>
results/run_pocketvec/st_parameters.prm

>  <SCORE>
-15.2475

>  <SCORE.INTER>
-9.64917

>  <SCORE.INTER.CONST>
1

>  <SCORE.INTER.POLAR>
-1.29746

>  <SCORE.INTER.REPUL>
0

>  <SCORE.INTER.ROT>
6

>  <SCORE.INTER.VDW>
-16.6378

>  <SCORE.INTER.norm>
-0.385967

>  <SCORE.INTRA>
5.88862e-13

>  <SCORE.INTRA.DIHEDRAL>
7.37188e-13

>  <SCORE.INTRA.DIHEDRAL.0>
4.46777

>  <SCORE.INTRA.POLAR>
0

>  <SCORE.INTRA.POLAR.0>
0

>  <SCORE.INTRA.REPUL>
0

>  <SCORE.INTRA.REPUL.0>
0

>  <SCORE.INTRA.VDW>
2.20268e-13

>  <SCORE.INTRA.VDW.0>
-3.33258

>  <SCORE.INTRA.norm>
2.35545e-14

>  <SCORE.RESTR>
0

>  <SCORE.RESTR.CAVITY>
0

>  <SCORE.RESTR.norm>
0

>  <SCORE.SYSTEM>
-5.59831

>  <SCORE.SYSTEM.CONST>
0

>  <SCORE.SYSTEM.DIHEDRAL>
1.12842

>  <SCORE.SYSTEM.POLAR>
-1.7423

>  <SCORE.SYSTEM.VDW>
-0.238702

>  <SCORE.SYSTEM.norm>
-0.223933

>  <SCORE.heavy>
25

>  <SCORE.norm>
-0.609899

$$$$
Tripos 1557-10610
  rDOCK(R)          3D
libRbt.so/2021.1/901 2021/07/19
 24 26  0  0  0  0  0  0  0  0999 V2000
   -5.1750    1.0491   11.8414 S   0  0  0  0  0  0
   -5.1995    1.8356   13.3613 N   0  0  0  0  0  0
   -5.8166    3.1873   13.4921 C   0  0  0  0  0  0
   -3.7995    1.8358   11.0346 C   0  0  0  0  0  0
   -4.9108    4.3211   13.0811 C   0  0  0  0  0  0
   -6.3695    1.3932   11.0946 O   0  0  0  0  0  0
   -4.8126   -0.3427   12.0335 O   0  0  0  0  0  0
   -4.0110    2.9996   10.2734 C   0  0  0  0  0  0
   -2.9368    3.6071    9.6204 C   0  0  0  0  0  0
   -2.5141    1.2919   11.1326 C   0  0  0  0  0  0
   -3.6903    4.3007   13.0267 O   0  0  0  0  0  0
   -1.6572    3.0595    9.7222 C   0  0  0  0  0  0
   -1.4451    1.9035   10.4773 C   0  0  0  0  0  0
   -4.1261    1.5239   14.3477 C   0  0  0  0  0  0
   -5.6408    5.4286   12.7847 O   0  0  0  0  0  0
   -6.3197    3.3854   14.9278 C   0  0  0  0  0  0
   -3.1395    4.7762    8.8531 C   0  0  0  0  0  0
   -0.5763    3.6863    9.0541 C   0  0  0  0  0  0
   -4.9401    6.5991   12.3780 C   0  0  0  0  0  0
   -4.6571    1.7038   15.7643 C   0  0  0  0  0  0
   -5.2419    3.0955   15.9705 C   0  0  0  0  0  0
   -5.9377    7.7037   12.0938 C   0  0  0  0  0  0
   -2.0676    5.3845    8.2002 C   0  0  0  0  0  0
   -0.7895    4.8403    8.3000 C   0  0  0  0  0  0
  1  2  1  0  0  0
  1  4  1  0  0  0
  1  6  2  0  0  0
  1  7  2  0  0  0
  2  3  1  0  0  0
  2 14  1  0  0  0
  3  5  1  0  0  0
  3 16  1  0  0  0
  4  8  2  0  0  0
  4 10  1  0  0  0
  5 11  2  0  0  0
  5 15  1  0  0  0
  8  9  1  0  0  0
  9 12  2  0  0  0
  9 17  1  0  0  0
 10 13  2  0  0  0
 12 13  1  0  0  0
 12 18  1  0  0  0
 14 20  1  0  0  0
 15 19  1  0  0  0
 16 21  1  0  0  0
 17 23  2  0  0  0
 18 24  2  0  0  0
 19 22  1  0  0  0
 20 21  1  0  0  0
 23 24  1  0  0  0
M  END
>  <$CLUSTER>
718

>  <CHROM.0>
175.47519593,171.61651257,73.89787235

>  <CHROM.1>
-4.13246583,3.15414690,11.86340892,-2.74474926,0.93211876,-0.16443138

>  <INDEX>
471448

>  <Name>
Tripos 1557-10610

>  <RI>
-1.67511e+09

>  <Rbt.Current_Directory>
/aloy/home/acomajuncosa/PocketVec_v2/GitLab_repo

>  <Rbt.Executable>
rbdock ($Id: //depot/dev/client3/rdock/2021.1/src/exe/rbdock.cxx#4 $)

>  <Rbt.Library>
libRbt.so (2021.1, Build901 2021/07/19)

>  <Rbt.Parameter_File>
results/run_pocketvec/dock.prm

>  <Rbt.Receptor>
results/run_pocketvec/st_parameters.prm

>  <SCORE>
-17.3921

>  <SCORE.INTER>
-11.9342

>  <SCORE.INTER.CONST>
1

>  <SCORE.INTER.POLAR>
-1.02353

>  <SCORE.INTER.REPUL>
0.0346615

>  <SCORE.INTER.ROT>
5

>  <SCORE.INTER.VDW>
-19.0275

>  <SCORE.INTER.norm>
-0.49726

>  <SCORE.INTRA>
-1.32427e-12

>  <SCORE.INTRA.DIHEDRAL>
3.97904e-13

>  <SCORE.INTRA.DIHEDRAL.0>
2.78831

>  <SCORE.INTRA.POLAR>
0

>  <SCORE.INTRA.POLAR.0>
0

>  <SCORE.INTRA.REPUL>
0

>  <SCORE.INTRA.REPUL.0>
0

>  <SCORE.INTRA.VDW>
-1.52323e-12

>  <SCORE.INTRA.VDW.0>
-3.28932

>  <SCORE.INTRA.norm>
-5.51781e-14

>  <SCORE.RESTR>
0

>  <SCORE.RESTR.CAVITY>
0

>  <SCORE.RESTR.norm>
0

>  <SCORE.SYSTEM>
-5.45789

>  <SCORE.SYSTEM.CONST>
0

>  <SCORE.SYSTEM.DIHEDRAL>
1.35427

>  <SCORE.SYSTEM.POLAR>
-1.74587

>  <SCORE.SYSTEM.VDW>
-0.19905

>  <SCORE.SYSTEM.norm>
-0.227412

>  <SCORE.heavy>
24

>  <SCORE.norm>
-0.724672

$$$$
Maybridge ML 00307
  rDOCK(R)          3D
libRbt.so/2021.1/901 2021/07/19
 22 23  0  0  0  0  0  0  0  0999 V2000
   -6.1587    6.0243   13.4427 C   0  0  0  0  0  0
   -5.8454    7.8795   11.9632 N   0  0  0  0  0  0
   -6.2450    3.8924   14.6594 N   0  0  0  0  0  0
   -5.8464    4.6920   13.5543 N   0  0  0  0  0  0
   -5.6090    6.5624   12.2019 N   0  0  0  0  0  0
   -6.7920    6.6042   14.2709 O   0  0  0  0  0  0
   -5.5290    8.2437   10.7563 C   0  0  0  0  0  0
   -5.7164    2.7671   14.7507 C   0  0  0  0  0  0
   -5.3400    9.8744    9.0111 N   0  0  0  0  0  0
   -5.4086    0.6555   15.8799 N   0  0  0  0  0  0
   -6.0708    1.8758   15.9028 C   0  0  0  0  0  0
   -5.7236    9.6615   10.3108 C   0  0  0  0  0  0
   -5.4948   11.1422    8.5563 C   0  0  0  0  0  0
   -5.6918   -0.1915   16.9010 C   0  0  0  0  0  0
   -6.2377   10.6252   11.1420 C   0  0  0  0  0  0
   -6.9596    2.2360   16.8813 C   0  0  0  0  0  0
   -6.0053   12.1837    9.3230 C   0  0  0  0  0  0
   -6.5812    0.1022   17.9277 C   0  0  0  0  0  0
   -6.3820   11.9162   10.6372 C   0  0  0  0  0  0
   -7.2240    1.3383   17.9148 C   0  0  0  0  0  0
   -5.3082    4.2600   12.8168 H   0  0  0  0  0  0
   -5.0828    5.9886   11.5576 H   0  0  0  0  0  0
  1  4  1  0  0  0
  1  5  1  0  0  0
  1  6  2  0  0  0
  2  5  1  0  0  0
  2  7  2  0  0  0
  3  4  1  0  0  0
  3  8  2  0  0  0
  4 21  1  0  0  0
  5 22  1  0  0  0
  7 12  1  0  0  0
  8 11  1  0  0  0
  9 12  2  0  0  0
  9 13  1  0  0  0
 10 11  2  0  0  0
 10 14  1  0  0  0
 11 16  1  0  0  0
 12 15  1  0  0  0
 13 17  2  0  0  0
 14 18  2  0  0  0
 15 19  2  0  0  0
 16 20  2  0  0  0
 17 19  1  0  0  0
 18 20  1  0  0  0
M  END
>  <$CLUSTER>
872

>  <CHROM.0>
-0.28076153,172.28557757,73.69866445

>  <CHROM.1>
-6.03844769,5.89984870,13.29341033,1.49950409,1.00989521,-0.56061058

>  <INDEX>
560500

>  <Name>
Maybridge ML 00307

>  <RI>
-1.67511e+09

>  <Rbt.Current_Directory>
/aloy/home/acomajuncosa/PocketVec_v2/GitLab_repo

>  <Rbt.Executable>
rbdock ($Id: //depot/dev/client3/rdock/2021.1/src/exe/rbdock.cxx#4 $)

>  <Rbt.Library>
libRbt.so (2021.1, Build901 2021/07/19)

>  <Rbt.Parameter_File>
results/run_pocketvec/dock.prm

>  <Rbt.Receptor>
results/run_pocketvec/st_parameters.prm

>  <SCORE>
-12.7665

>  <SCORE.INTER>
-7.1584

>  <SCORE.INTER.CONST>
1

>  <SCORE.INTER.POLAR>
0

>  <SCORE.INTER.REPUL>
0

>  <SCORE.INTER.ROT>
4

>  <SCORE.INTER.VDW>
-16.5584

>  <SCORE.INTER.norm>
-0.35792

>  <SCORE.INTRA>
1.15991e-13

>  <SCORE.INTRA.DIHEDRAL>
4.86666e-13

>  <SCORE.INTRA.DIHEDRAL.0>
0.476294

>  <SCORE.INTRA.POLAR>
0

>  <SCORE.INTRA.POLAR.0>
0

>  <SCORE.INTRA.REPUL>
0

>  <SCORE.INTRA.REPUL.0>
0

>  <SCORE.INTRA.VDW>
-1.27343e-13

>  <SCORE.INTRA.VDW.0>
-0.0568055

>  <SCORE.INTRA.norm>
5.79953e-15

>  <SCORE.RESTR>
0

>  <SCORE.RESTR.CAVITY>
0

>  <SCORE.RESTR.norm>
0

>  <SCORE.SYSTEM>
-5.60815

>  <SCORE.SYSTEM.CONST>
0

>  <SCORE.SYSTEM.DIHEDRAL>
1.24161

>  <SCORE.SYSTEM.POLAR>
-1.74424

>  <SCORE.SYSTEM.VDW>
-0.298547

>  <SCORE.SYSTEM.norm>
-0.280407

>  <SCORE.heavy>
20

>  <SCORE.norm>
-0.638327

$$$$
Bionet 10X-0864
  rDOCK(R)          3D
libRbt.so/2021.1/901 2021/07/19
 24 26  0  0  0  0  0  0  0  0999 V2000
   -4.1000    7.2563    8.9643 S   0  0  0  0  0  0
   -5.6612    7.8082    8.7246 N   0  0  0  0  0  0
   -5.3025    1.4824   17.5528 C   0  0  0  0  0  0
   -4.0178    1.2856   17.3616 N   0  0  0  0  0  0
   -6.1817    2.1240   16.2278 S   0  0  0  0  0  0
   -4.7349    2.1524   15.3049 C   0  0  0  0  0  0
   -4.2384    6.2770   10.4210 C   0  0  0  0  0  0
   -3.6941    1.6704   16.0749 C   0  0  0  0  0  0
   -3.2686    8.4103    9.2649 O   0  0  0  0  0  0
   -3.7628    6.3909    7.8486 O   0  0  0  0  0  0
   -6.6931    6.8183    8.3147 C   0  0  0  0  0  0
   -6.2108    8.7926    9.6952 C   0  0  0  0  0  0
   -4.0685    6.8622   11.6731 C   0  0  0  0  0  0
   -4.4919    4.9105   10.3221 C   0  0  0  0  0  0
   -6.0068    1.1110   19.0403 Cl  0  0  0  0  0  0
   -4.7191    2.6379   13.9017 C   0  0  0  0  0  0
   -4.4647    4.0345   13.9476 O   0  0  0  0  0  0
   -4.4050    4.7043   12.7345 C   0  0  0  0  0  0
   -4.1513    6.0779   12.8247 C   0  0  0  0  0  0
   -4.5751    4.1241   11.4749 C   0  0  0  0  0  0
   -7.9571    7.4810    7.7726 C   0  0  0  0  0  0
   -7.4650    9.4878    9.1774 C   0  0  0  0  0  0
   -8.5458    8.4863    8.7641 C   0  0  0  0  0  0
   -9.7588    9.1982    8.1721 C   0  0  0  0  0  0
  1  2  1  0  0  0
  1  7  1  0  0  0
  1  9  2  0  0  0
  1 10  2  0  0  0
  2 11  1  0  0  0
  2 12  1  0  0  0
  3  4  2  0  0  0
  3  5  1  0  0  0
  3 15  1  0  0  0
  4  8  1  0  0  0
  5  6  1  0  0  0
  6  8  2  0  0  0
  6 16  1  0  0  0
  7 13  2  0  0  0
  7 14  1  0  0  0
 11 21  1  0  0  0
 12 22  1  0  0  0
 13 19  1  0  0  0
 14 20  2  0  0  0
 16 17  1  0  0  0
 17 18  1  0  0  0
 18 19  2  0  0  0
 18 20  1  0  0  0
 21 23  1  0  0  0
 22 23  1  0  0  0
 23 24  1  0  0  0
M  END
>  <$CLUSTER>
19

>  <CHROM.0>
-0.46064240,173.40387876,73.93404874

>  <CHROM.1>
-5.37878367,5.15625775,12.28222049,-1.65303410,-0.22679896,2.18950261

>  <INDEX>
8245

>  <Name>
Bionet 10X-0864

>  <RI>
-1.67511e+09

>  <Rbt.Current_Directory>
/aloy/home/acomajuncosa/PocketVec_v2/GitLab_repo

>  <Rbt.Executable>
rbdock ($Id: //depot/dev/client3/rdock/2021.1/src/exe/rbdock.cxx#4 $)

>  <Rbt.Library>
libRbt.so (2021.1, Build901 2021/07/19)

>  <Rbt.Parameter_File>
results/run_pocketvec/dock.prm

>  <Rbt.Receptor>
results/run_pocketvec/st_parameters.prm

>  <SCORE>
-14.1893

>  <SCORE.INTER>
-8.5873

>  <SCORE.INTER.CONST>
1

>  <SCORE.INTER.POLAR>
-1.11511

>  <SCORE.INTER.REPUL>
0.0685021

>  <SCORE.INTER.ROT>
5

>  <SCORE.INTER.VDW>
-15.5384

>  <SCORE.INTER.norm>
-0.357804

>  <SCORE.INTRA>
-1.69198e-13

>  <SCORE.INTRA.DIHEDRAL>
1.86517e-13

>  <SCORE.INTRA.DIHEDRAL.0>
2.72313

>  <SCORE.INTRA.POLAR>
0

>  <SCORE.INTRA.POLAR.0>
0

>  <SCORE.INTRA.REPUL>
0

>  <SCORE.INTRA.REPUL.0>
0

>  <SCORE.INTRA.VDW>
-2.62457e-13

>  <SCORE.INTRA.VDW.0>
-0.886373

>  <SCORE.INTRA.norm>
-7.04992e-15

>  <SCORE.RESTR>
0

>  <SCORE.RESTR.CAVITY>
0

>  <SCORE.RESTR.norm>
0

>  <SCORE.SYSTEM>
-5.60195

>  <SCORE.SYSTEM.CONST>
0

>  <SCORE.SYSTEM.DIHEDRAL>
1.1952

>  <SCORE.SYSTEM.POLAR>
-1.74617

>  <SCORE.SYSTEM.VDW>
-0.262571

>  <SCORE.SYSTEM.norm>
-0.233415

>  <SCORE.heavy>
24

>  <SCORE.norm>
-0.591219

$$$$
Tripos 1526-22023
  rDOCK(R)          3D
libRbt.so/2021.1/901 2021/07/19
 26 27  0  0  0  0  0  0  0  0999 V2000
   -1.6960    2.2950   11.5610 C   0  0  0  0  0  0
    0.5835    4.2983    7.0588 N   0  0  0  0  0  0
    0.6935    5.2444    6.0985 C   0  0  0  0  0  0
   -2.4093    2.7480   12.6189 N   0  0  0  0  0  0
   -2.5147    3.9850   13.3283 C   0  0  0  0  0  0
   -1.1782    3.3058   10.8125 N   0  0  0  0  0  0
   -3.6352    4.2667   14.1474 C   0  0  0  0  0  0
   -1.5341    0.6568   11.3008 S   0  0  0  0  0  0
   -0.3856    3.1956    7.0883 C   0  0  0  0  0  0
    1.4592    4.2640    8.2367 C   0  0  0  0  0  0
    1.5082    6.1627    6.0860 O   0  0  0  0  0  0
   -3.6835    5.4847   14.8510 C   0  0  0  0  0  0
   -1.4656    4.9135   13.2715 C   0  0  0  0  0  0
    0.6646    4.3303    9.5398 C   0  0  0  0  0  0
   -1.2441    3.2242    8.3515 C   0  0  0  0  0  0
   -0.3624    3.1990    9.6007 C   0  0  0  0  0  0
   -0.2101    5.1036    5.0908 O   0  0  0  0  0  0
   -2.6418    6.4075   14.7588 C   0  0  0  0  0  0
   -1.5319    6.1193   13.9729 C   0  0  0  0  0  0
   -2.5908    7.6138   15.4103 O   0  0  0  0  0  0
   -4.7921    3.3097   14.2884 C   0  0  0  0  0  0
   -0.2030    6.0254    4.0229 C   0  0  0  0  0  0
   -3.7002    7.9534   16.2329 C   0  0  0  0  0  0
   -1.2939    5.6556    3.0374 C   0  0  0  0  0  0
   -3.0166    2.0374   13.0011 H   0  0  0  0  0  0
   -1.3803    4.2432   11.1307 H   0  0  0  0  0  0
  1  4  1  0  0  0
  1  6  1  0  0  0
  1  8  2  0  0  0
  2  3  1  0  0  0
  2  9  1  0  0  0
  2 10  1  0  0  0
  3 11  2  0  0  0
  3 17  1  0  0  0
  4  5  1  0  0  0
  4 25  1  0  0  0
  5  7  2  0  0  0
  5 13  1  0  0  0
  6 16  1  0  0  0
  6 26  1  0  0  0
  7 12  1  0  0  0
  7 21  1  0  0  0
  9 15  1  0  0  0
 10 14  1  0  0  0
 12 18  2  0  0  0
 13 19  2  0  0  0
 14 16  1  0  0  0
 15 16  1  0  0  0
 17 22  1  0  0  0
 18 19  1  0  0  0
 18 20  1  0  0  0
 20 23  1  0  0  0
 22 24  1  0  0  0
M  END
>  <$CLUSTER>
683

>  <CHROM.0>
2.74129748,171.15239495,75.32428369

>  <CHROM.1>
-1.33373430,4.40234473,10.40898652,3.05725658,1.23016134,0.05223160

>  <INDEX>
448656

>  <Name>
Tripos 1526-22023

>  <RI>
-1.67511e+09

>  <Rbt.Current_Directory>
/aloy/home/acomajuncosa/PocketVec_v2/GitLab_repo

>  <Rbt.Executable>
rbdock ($Id: //depot/dev/client3/rdock/2021.1/src/exe/rbdock.cxx#4 $)

>  <Rbt.Library>
libRbt.so (2021.1, Build901 2021/07/19)

>  <Rbt.Parameter_File>
results/run_pocketvec/dock.prm

>  <Rbt.Receptor>
results/run_pocketvec/st_parameters.prm

>  <SCORE>
-10.4799

>  <SCORE.INTER>
-4.88975

>  <SCORE.INTER.CONST>
1

>  <SCORE.INTER.POLAR>
0

>  <SCORE.INTER.REPUL>
0.00833553

>  <SCORE.INTER.ROT>
5

>  <SCORE.INTER.VDW>
-15.3314

>  <SCORE.INTER.norm>
-0.20374

>  <SCORE.INTRA>
4.52904e-12

>  <SCORE.INTRA.DIHEDRAL>
4.86278e-13

>  <SCORE.INTRA.DIHEDRAL.0>
3.99459

>  <SCORE.INTRA.POLAR>
0

>  <SCORE.INTRA.POLAR.0>
0

>  <SCORE.INTRA.REPUL>
0

>  <SCORE.INTRA.REPUL.0>
0

>  <SCORE.INTRA.VDW>
4.2859e-12

>  <SCORE.INTRA.VDW.0>
3.21921

>  <SCORE.INTRA.norm>
1.8871e-13

>  <SCORE.RESTR>
0

>  <SCORE.RESTR.CAVITY>
0

>  <SCORE.RESTR.norm>
0

>  <SCORE.SYSTEM>
-5.59015

>  <SCORE.SYSTEM.CONST>
0

>  <SCORE.SYSTEM.DIHEDRAL>
1.54528

>  <SCORE.SYSTEM.POLAR>
-1.7575

>  <SCORE.SYSTEM.VDW>
-0.387302

>  <SCORE.SYSTEM.norm>
-0.232923

>  <SCORE.heavy>
24

>  <SCORE.norm>
-0.436662

$$$$
InterBioScreen STOCK5S-13559
  rDOCK(R)          3D
libRbt.so/2021.1/901 2021/07/19
 26 28  0  0  0  0  0  0  0  0999 V2000
   -4.5640    3.7609   11.0029 S   0  0  0  0  0  0
   -3.4422    5.0376   10.8218 C   0  0  0  0  0  0
   -3.2294    2.6893   11.0181 C   0  0  0  0  0  0
   -2.0586    3.2734   10.8963 N   0  0  0  0  0  0
   -3.8294    6.3617   10.7283 N   0  0  0  0  0  0
   -2.1850    4.6460   10.7815 N   0  0  0  0  0  0
   -5.1278    6.8518   10.7625 C   0  0  0  0  0  0
   -5.1404    8.3551   10.6296 C   0  0  0  0  0  0
   -4.1790    9.0967    9.9834 C   0  0  0  0  0  0
   -4.2904   10.4852    9.8848 C   0  0  0  0  0  0
   -3.3928    1.2113   11.1604 C   0  0  0  0  0  0
   -6.1770    6.2269   10.8801 O   0  0  0  0  0  0
   -5.3944   11.1414   10.4274 C   0  0  0  0  0  0
   -6.2871    9.0210   11.1664 C   0  0  0  0  0  0
   -6.3930   10.4086   11.0659 C   0  0  0  0  0  0
   -4.6432    0.5816   11.2792 C   0  0  0  0  0  0
   -2.2456    0.3960   11.1770 C   0  0  0  0  0  0
   -3.5925   -1.5938   11.4245 C   0  0  0  0  0  0
   -3.3525   11.2975    9.2654 O   0  0  0  0  0  0
   -4.7400   -0.8088   11.4101 C   0  0  0  0  0  0
   -2.3446   -0.9921   11.3077 C   0  0  0  0  0  0
   -3.7302   -3.2818   11.5840 Cl  0  0  0  0  0  0
   -5.4251   12.5114   10.2731 O   0  0  0  0  0  0
   -2.2075   10.6675    8.7031 C   0  0  0  0  0  0
   -6.5427   13.2065   10.8121 C   0  0  0  0  0  0
   -3.0910    7.0429   10.6245 H   0  0  0  0  0  0
  1  2  1  0  0  0
  1  3  1  0  0  0
  2  5  1  0  0  0
  2  6  2  0  0  0
  3  4  2  0  0  0
  3 11  1  0  0  0
  4  6  1  0  0  0
  5  7  1  0  0  0
  5 26  1  0  0  0
  7  8  1  0  0  0
  7 12  2  0  0  0
  8  9  1  0  0  0
  8 14  2  0  0  0
  9 10  2  0  0  0
 10 13  1  0  0  0
 10 19  1  0  0  0
 11 16  2  0  0  0
 11 17  1  0  0  0
 13 15  2  0  0  0
 13 23  1  0  0  0
 14 15  1  0  0  0
 16 20  1  0  0  0
 17 21  2  0  0  0
 18 20  2  0  0  0
 18 21  1  0  0  0
 18 22  1  0  0  0
 19 24  1  0  0  0
 23 25  1  0  0  0
M  END
>  <$CLUSTER>
563

>  <CHROM.0>
179.19454985,172.01000815,73.92823155

>  <CHROM.1>
-4.17922952,5.16762619,10.77660898,1.44453465,-0.30139191,3.00708132

>  <INDEX>
366816

>  <Name>
InterBioScreen STOCK5S-13559

>  <RI>
-1.67511e+09

>  <Rbt.Current_Directory>
/aloy/home/acomajuncosa/PocketVec_v2/GitLab_repo

>  <Rbt.Executable>
rbdock ($Id: //depot/dev/client3/rdock/2021.1/src/exe/rbdock.cxx#4 $)

>  <Rbt.Library>
libRbt.so (2021.1, Build901 2021/07/19)

>  <Rbt.Parameter_File>
results/run_pocketvec/dock.prm

>  <Rbt.Receptor>
results/run_pocketvec/st_parameters.prm

>  <SCORE>
-14.1782

>  <SCORE.INTER>
-8.72207

>  <SCORE.INTER.CONST>
1

>  <SCORE.INTER.POLAR>
-0.577603

>  <SCORE.INTER.REPUL>
0

>  <SCORE.INTER.ROT>
5

>  <SCORE.INTER.VDW>
-17.1582

>  <SCORE.INTER.norm>
-0.348883

>  <SCORE.INTRA>
-4.19847e-12

>  <SCORE.INTRA.DIHEDRAL>
3.16192e-13

>  <SCORE.INTRA.DIHEDRAL.0>
2.42788

>  <SCORE.INTRA.POLAR>
0

>  <SCORE.INTRA.POLAR.0>
0

>  <SCORE.INTRA.REPUL>
1.14832e-13

>  <SCORE.INTRA.REPUL.0>
0.0186787

>  <SCORE.INTRA.VDW>
-4.93072e-12

>  <SCORE.INTRA.VDW.0>
3.90931

>  <SCORE.INTRA.norm>
-1.67939e-13

>  <SCORE.RESTR>
0

>  <SCORE.RESTR.CAVITY>
0

>  <SCORE.RESTR.norm>
0

>  <SCORE.SYSTEM>
-5.45613

>  <SCORE.SYSTEM.CONST>
0

>  <SCORE.SYSTEM.DIHEDRAL>
1.29228

>  <SCORE.SYSTEM.POLAR>
-1.74612

>  <SCORE.SYSTEM.VDW>
-0.165451

>  <SCORE.SYSTEM.norm>
-0.218245

>  <SCORE.heavy>
25

>  <SCORE.norm>
-0.567128

$$$$
Otava 0120630218
  rDOCK(R)          3D
libRbt.so/2021.1/901 2021/07/19
 22 23  0  0  0  0  0  0  0  0999 V2000
   -3.1301    2.7246   11.7319 C   0  0  0  0  0  0
   -2.9569    3.5035   10.4995 C   0  0  0  0  0  0
   -3.6354    3.4130   12.7874 N   0  0  0  0  0  0
   -3.9077    2.8670   14.1066 C   0  0  0  0  0  0
   -3.7214    3.9249   15.1907 C   0  0  0  0  0  0
   -1.7329    3.5876    9.8361 C   0  0  0  0  0  0
   -2.8545    1.5303   11.7768 O   0  0  0  0  0  0
   -5.3144    2.2792   14.1538 C   0  0  0  0  0  0
   -4.7220    4.5638   15.6649 O   0  0  0  0  0  0
   -2.4941    4.1299   15.5920 O   0  5  0  0  0  0
   -0.1372    2.8001   10.4938 Br  0  0  0  0  0  0
   -5.6769    1.5567   15.4385 C   0  0  0  0  0  0
   -4.0835    4.1530    9.9743 C   0  0  0  0  0  0
   -1.6381    4.3209    8.6462 C   0  0  0  0  0  0
   -6.1999    2.2743   16.5105 C   0  0  0  0  0  0
   -5.3659    0.2072   15.5828 C   0  0  0  0  0  0
   -3.9832    4.8820    8.7894 C   0  0  0  0  0  0
   -2.7618    4.9643    8.1250 C   0  0  0  0  0  0
   -5.6445   -0.4440   16.7855 C   0  0  0  0  0  0
   -6.4769    1.6217   17.7128 C   0  0  0  0  0  0
   -6.1998    0.2636   17.8489 C   0  0  0  0  0  0
   -3.8407    4.3917   12.6434 H   0  0  0  0  0  0
  1  2  1  0  0  0
  1  3  1  0  0  0
  1  7  2  0  0  0
  2  6  2  0  0  0
  2 13  1  0  0  0
  3  4  1  0  0  0
  3 22  1  0  0  0
  4  5  1  0  0  0
  4  8  1  0  0  0
  5  9  2  0  0  0
  5 10  1  0  0  0
  6 11  1  0  0  0
  6 14  1  0  0  0
  8 12  1  0  0  0
 12 15  1  0  0  0
 12 16  2  0  0  0
 13 17  2  0  0  0
 14 18  2  0  0  0
 15 20  2  0  0  0
 16 19  1  0  0  0
 17 18  1  0  0  0
 19 21  2  0  0  0
 20 21  1  0  0  0
M  END
>  <$CLUSTER>
860

>  <CHROM.0>
4.57653482,171.78995194,73.74000925

>  <CHROM.1>
-3.19856924,2.82890868,12.71949137,0.96802599,0.42613276,-1.01379042

>  <INDEX>
431950

>  <Name>
Otava 0120630218

>  <RI>
-1.67511e+09

>  <Rbt.Current_Directory>
/aloy/home/acomajuncosa/PocketVec_v2/GitLab_repo

>  <Rbt.Executable>
rbdock ($Id: //depot/dev/client3/rdock/2021.1/src/exe/rbdock.cxx#4 $)

>  <Rbt.Library>
libRbt.so (2021.1, Build901 2021/07/19)

>  <Rbt.Parameter_File>
results/run_pocketvec/dock.prm

>  <Rbt.Receptor>
results/run_pocketvec/st_parameters.prm

>  <SCORE>
-12.5682

>  <SCORE.INTER>
-6.96303

>  <SCORE.INTER.CONST>
1

>  <SCORE.INTER.POLAR>
0

>  <SCORE.INTER.REPUL>
0.212504

>  <SCORE.INTER.ROT>
5

>  <SCORE.INTER.VDW>
-18.4255

>  <SCORE.INTER.norm>
-0.331573

>  <SCORE.INTRA>
-9.68559e-13

>  <SCORE.INTRA.DIHEDRAL>
9.50351e-13

>  <SCORE.INTRA.DIHEDRAL.0>
12.1103

>  <SCORE.INTRA.POLAR>
0

>  <SCORE.INTRA.POLAR.0>
0

>  <SCORE.INTRA.REPUL>
0

>  <SCORE.INTRA.REPUL.0>
0

>  <SCORE.INTRA.VDW>
-1.44373e-12

>  <SCORE.INTRA.VDW.0>
-2.264

>  <SCORE.INTRA.norm>
-4.61218e-14

>  <SCORE.RESTR>
0

>  <SCORE.RESTR.CAVITY>
0

>  <SCORE.RESTR.norm>
0

>  <SCORE.SYSTEM>
-5.60518

>  <SCORE.SYSTEM.CONST>
0

>  <SCORE.SYSTEM.DIHEDRAL>
1.30602

>  <SCORE.SYSTEM.POLAR>
-1.74458

>  <SCORE.SYSTEM.VDW>
-0.326626

>  <SCORE.SYSTEM.norm>
-0.266913

>  <SCORE.heavy>
21

>  <SCORE.norm>
-0.598486

$$$$
Asinex ASN 02617640
  rDOCK(R)          3D
libRbt.so/2021.1/901 2021/07/19
 28 30  0  0  0  0  0  0  0  0999 V2000
   -5.2507    6.6847   10.4974 C   0  0  0  0  0  0
   -3.8395    2.7210   13.7900 N   0  0  0  0  0  0
   -4.9155    6.2319    9.2347 C   0  0  0  0  0  0
   -3.5542    2.1347   12.5921 C   0  0  0  0  0  0
   -3.2826    3.0583   11.6989 N   0  0  0  0  0  0
   -3.7190    4.0307   13.5442 C   0  0  0  0  0  0
   -6.8045    7.3833   10.5162 S   0  0  0  0  0  0
   -3.3907    4.2834   12.3223 N   0  0  0  0  0  0
   -5.9510    6.4663    8.2833 C   0  0  0  0  0  0
   -7.0396    7.0885    8.8498 C   0  0  0  0  0  0
   -4.4679    6.6089   11.6424 N   0  0  0  0  0  0
   -3.6711    5.5986    8.9140 C   0  0  0  0  0  0
   -2.6629    5.0866    8.6573 N   0  0  0  0  0  0
   -4.0014    5.2656   14.8427 S   0  0  0  0  0  0
   -4.8055    7.0634   12.9127 C   0  0  0  0  0  0
   -3.5690    0.6759   12.2560 C   0  0  0  0  0  0
   -5.8383    7.6143   13.2793 O   0  0  0  0  0  0
   -3.6887    6.7990   13.8926 C   0  0  0  0  0  0
   -4.6223   -0.1603   12.6510 C   0  0  0  0  0  0
   -2.5087    0.1252   11.5226 C   0  0  0  0  0  0
   -4.1842    2.0278   15.0046 C   0  0  0  0  0  0
   -5.8400    6.0861    6.9023 C   0  0  0  0  0  0
   -2.4900   -1.2363   11.2101 C   0  0  0  0  0  0
   -4.6029   -1.5220   12.3367 C   0  0  0  0  0  0
   -3.5369   -2.0588   11.6199 C   0  0  0  0  0  0
   -8.2537    7.4657    8.1580 C   0  0  0  0  0  0
   -3.5182   -3.5163   11.2917 C   0  0  0  0  0  0
   -3.5588    6.1791   11.5421 H   0  0  0  0  0  0
  1  3  2  0  0  0
  1  7  1  0  0  0
  1 11  1  0  0  0
  2  4  1  0  0  0
  2  6  1  0  0  0
  2 21  1  0  0  0
  3  9  1  0  0  0
  3 12  1  0  0  0
  4  5  2  0  0  0
  4 16  1  0  0  0
  5  8  1  0  0  0
  6  8  2  0  0  0
  6 14  1  0  0  0
  7 10  1  0  0  0
  9 10  2  0  0  0
  9 22  1  0  0  0
 10 26  1  0  0  0
 11 15  1  0  0  0
 11 28  1  0  0  0
 12 13  3  0  0  0
 14 18  1  0  0  0
 15 17  2  0  0  0
 15 18  1  0  0  0
 16 19  1  0  0  0
 16 20  2  0  0  0
 19 24  2  0  0  0
 20 23  1  0  0  0
 23 25  2  0  0  0
 24 25  1  0  0  0
 25 27  1  0  0  0
M  END
>  <$CLUSTER>
241

>  <CHROM.0>
-0.75560381,172.00526312,73.75894156

>  <CHROM.1>
-4.54786622,4.04059149,11.55839749,2.67089566,-1.23453292,0.79378695

>  <INDEX>
127199

>  <Name>
Asinex ASN 02617640

>  <RI>
-1.67511e+09

>  <Rbt.Current_Directory>
/aloy/home/acomajuncosa/PocketVec_v2/GitLab_repo

>  <Rbt.Executable>
rbdock ($Id: //depot/dev/client3/rdock/2021.1/src/exe/rbdock.cxx#4 $)

>  <Rbt.Library>
libRbt.so (2021.1, Build901 2021/07/19)

>  <Rbt.Parameter_File>
results/run_pocketvec/dock.prm

>  <Rbt.Receptor>
results/run_pocketvec/st_parameters.prm

>  <SCORE>
-13.2428

>  <SCORE.INTER>
-7.63465

>  <SCORE.INTER.CONST>
1

>  <SCORE.INTER.POLAR>
0

>  <SCORE.INTER.REPUL>
0

>  <SCORE.INTER.ROT>
5

>  <SCORE.INTER.VDW>
-18.0347

>  <SCORE.INTER.norm>
-0.282765

>  <SCORE.INTRA>
1.68088e-14

>  <SCORE.INTRA.DIHEDRAL>
1.93623e-13

>  <SCORE.INTRA.DIHEDRAL.0>
8.251

>  <SCORE.INTRA.POLAR>
4.55191e-15

>  <SCORE.INTRA.POLAR.0>
-0.306565

>  <SCORE.INTRA.REPUL>
0

>  <SCORE.INTRA.REPUL.0>
0

>  <SCORE.INTRA.VDW>
-9.54792e-14

>  <SCORE.INTRA.VDW.0>
-2.77061

>  <SCORE.INTRA.norm>
6.22547e-16

>  <SCORE.RESTR>
0

>  <SCORE.RESTR.CAVITY>
0

>  <SCORE.RESTR.norm>
0

>  <SCORE.SYSTEM>
-5.60818

>  <SCORE.SYSTEM.CONST>
0

>  <SCORE.SYSTEM.DIHEDRAL>
1.27142

>  <SCORE.SYSTEM.POLAR>
-1.74473

>  <SCORE.SYSTEM.VDW>
-0.311801

>  <SCORE.SYSTEM.norm>
-0.20771

>  <SCORE.heavy>
27

>  <SCORE.norm>
-0.490475

$$$$
Chem T&I AMSACS-08601
  rDOCK(R)          3D
libRbt.so/2021.1/901 2021/07/19
 25 27  0  0  0  0  0  0  0  0999 V2000
   -3.8288    3.5054   11.4266 S   0  0  0  0  0  0
   -7.7163    3.5082   17.3686 N   0  0  0  0  0  0
   -6.2479    1.9500   18.1442 C   0  0  0  0  0  0
   -6.8367    2.5360   17.0512 N   0  0  0  0  0  0
   -6.7901    2.5899   19.2378 C   0  0  0  0  0  0
   -7.6827    3.5344   18.7016 C   0  0  0  0  0  0
   -3.0923    1.8796   11.4174 C   0  0  0  0  0  0
   -3.8955    0.7758   11.1376 C   0  0  0  0  0  0
   -2.7600    4.4511   11.1256 O   0  0  0  0  0  0
   -5.0047    3.4503   10.5625 O   0  0  0  0  0  0
   -4.2823    3.6496   13.0088 N   0  0  0  0  0  0
   -3.3180   -0.4936   11.1274 C   0  0  0  0  0  0
   -1.7352    1.7439   11.6766 C   0  0  0  0  0  0
   -1.9567   -0.6467   11.3907 C   0  0  0  0  0  0
   -1.1666    0.4702   11.6647 C   0  0  0  0  0  0
   -6.4825    2.3286   20.7903 Cl  0  0  0  0  0  0
   -6.6153    2.2269   15.6517 C   0  0  0  0  0  0
   -5.2456    0.8598   18.0657 C   0  0  0  0  0  0
   -5.5457    3.1073   15.0305 C   0  0  0  0  0  0
   -5.3186    2.7941   13.5710 C   0  0  0  0  0  0
   -4.1074   -1.6416   10.8505 C   0  0  0  0  0  0
   -1.3851   -1.9507   11.3743 C   0  0  0  0  0  0
   -3.5339   -2.9132   10.8375 C   0  0  0  0  0  0
   -2.1751   -3.0677   11.0993 C   0  0  0  0  0  0
   -4.5968    4.6010   13.1323 H   0  0  0  0  0  0
  1  7  1  0  0  0
  1  9  2  0  0  0
  1 10  2  0  0  0
  1 11  1  0  0  0
  2  4  1  0  0  0
  2  6  2  0  0  0
  3  4  1  0  0  0
  3  5  2  0  0  0
  3 18  1  0  0  0
  4 17  1  0  0  0
  5  6  1  0  0  0
  5 16  1  0  0  0
  7  8  2  0  0  0
  7 13  1  0  0  0
  8 12  1  0  0  0
 11 20  1  0  0  0
 11 25  1  0  0  0
 12 14  2  0  0  0
 12 21  1  0  0  0
 13 15  2  0  0  0
 14 15  1  0  0  0
 14 22  1  0  0  0
 17 19  1  0  0  0
 19 20  1  0  0  0
 21 23  2  0  0  0
 22 24  2  0  0  0
 23 24  1  0  0  0
M  END
>  <$CLUSTER>
787

>  <CHROM.0>
2.00149725,171.61266048,74.05920763

>  <CHROM.1>
-4.56423882,1.68314064,14.13778420,0.29799792,1.10707784,-0.61321312

>  <INDEX>
516253

>  <Name>
Chem T&I AMSACS-08601

>  <RI>
-1.67511e+09

>  <Rbt.Current_Directory>
/aloy/home/acomajuncosa/PocketVec_v2/GitLab_repo

>  <Rbt.Executable>
rbdock ($Id: //depot/dev/client3/rdock/2021.1/src/exe/rbdock.cxx#4 $)

>  <Rbt.Library>
libRbt.so (2021.1, Build901 2021/07/19)

>  <Rbt.Parameter_File>
results/run_pocketvec/dock.prm

>  <Rbt.Receptor>
results/run_pocketvec/st_parameters.prm

>  <SCORE>
34.6986

>  <SCORE.INTER>
40.3094

>  <SCORE.INTER.CONST>
1

>  <SCORE.INTER.POLAR>
-0.137261

>  <SCORE.INTER.REPUL>
0.147682

>  <SCORE.INTER.ROT>
6

>  <SCORE.INTER.VDW>
28.6377

>  <SCORE.INTER.norm>
1.67956

>  <SCORE.INTRA>
5.33129e-13

>  <SCORE.INTRA.DIHEDRAL>
1.53211e-13

>  <SCORE.INTRA.DIHEDRAL.0>
3.74513

>  <SCORE.INTRA.POLAR>
0

>  <SCORE.INTRA.POLAR.0>
0

>  <SCORE.INTRA.REPUL>
0

>  <SCORE.INTRA.REPUL.0>
0

>  <SCORE.INTRA.VDW>
4.56524e-13

>  <SCORE.INTRA.VDW.0>
-1.80853

>  <SCORE.INTRA.norm>
2.22137e-14

>  <SCORE.RESTR>
0

>  <SCORE.RESTR.CAVITY>
0

>  <SCORE.RESTR.norm>
0

>  <SCORE.SYSTEM>
-5.61085

>  <SCORE.SYSTEM.CONST>
0

>  <SCORE.SYSTEM.DIHEDRAL>
1.33941

>  <SCORE.SYSTEM.POLAR>
-1.7472

>  <SCORE.SYSTEM.VDW>
-0.340077

>  <SCORE.SYSTEM.norm>
-0.233785

>  <SCORE.heavy>
24

>  <SCORE.norm>
1.44577

$$$$
Tripos 1557-13590
  rDOCK(R)          3D
libRbt.so/2021.1/901 2021/07/19
 27 29  0  0  0  0  0  0  0  0999 V2000
   -4.1947    0.5790   11.0722 S   0  0  0  0  0  0
   -2.4868    0.5469   11.2196 N   0  0  0  0  0  0
   -4.5933    1.8661   12.2338 C   0  0  0  0  0  0
   -4.7138   -0.6593   11.6224 O   0  0  0  0  0  0
   -4.5978    1.0266    9.7551 O   0  0  0  0  0  0
   -5.3218    3.8908   14.0268 C   0  0  0  0  0  0
   -5.7106    4.9433   15.0084 C   0  0  0  0  0  0
   -4.8341    1.5636   13.5840 C   0  0  0  0  0  0
   -4.7479    3.1909   11.7833 C   0  0  0  0  0  0
   -5.8995    4.6408   16.1856 O   0  0  0  0  0  0
   -5.1887    2.5772   14.4776 C   0  0  0  0  0  0
   -5.1014    4.1981   12.6821 C   0  0  0  0  0  0
   -1.7376    1.6311   10.6431 C   0  0  0  0  0  0
   -0.3094    3.7731    9.5682 C   0  0  0  0  0  0
    0.4834    4.9320    8.9799 C   0  0  0  0  0  0
   -1.0814    2.5278   11.4905 C   0  0  0  0  0  0
   -1.6794    1.8059    9.2577 C   0  0  0  0  0  0
   -0.9636    2.8777    8.7231 C   0  0  0  0  0  0
   -0.3670    3.5989   10.9502 C   0  0  0  0  0  0
    1.9320    4.5491    8.7170 C   0  0  0  0  0  0
   -5.8630    6.3668   14.5409 C   0  0  0  0  0  0
    2.3032    3.9951    7.4871 C   0  0  0  0  0  0
    2.8983    4.7164    9.7133 C   0  0  0  0  0  0
    4.2235    4.3492    9.4766 C   0  0  0  0  0  0
    3.6287    3.6275    7.2533 C   0  0  0  0  0  0
    4.5877    3.8067    8.2473 C   0  0  0  0  0  0
   -2.0204   -0.2107   11.6970 H   0  0  0  0  0  0
  1  2  1  0  0  0
  1  3  1  0  0  0
  1  4  2  0  0  0
  1  5  2  0  0  0
  2 13  1  0  0  0
  2 27  1  0  0  0
  3  8  2  0  0  0
  3  9  1  0  0  0
  6  7  1  0  0  0
  6 11  2  0  0  0
  6 12  1  0  0  0
  7 10  2  0  0  0
  7 21  1  0  0  0
  8 11  1  0  0  0
  9 12  2  0  0  0
 13 16  1  0  0  0
 13 17  2  0  0  0
 14 15  1  0  0  0
 14 18  2  0  0  0
 14 19  1  0  0  0
 15 20  1  0  0  0
 16 19  2  0  0  0
 17 18  1  0  0  0
 20 22  1  0  0  0
 20 23  2  0  0  0
 22 25  2  0  0  0
 23 24  1  0  0  0
 24 26  2  0  0  0
 25 26  1  0  0  0
M  END
>  <$CLUSTER>
723

>  <CHROM.0>
0.36147965,171.87086865,169.43853317

>  <CHROM.1>
-2.10005962,2.94646166,11.14202841,2.92643498,0.53654634,0.57939295

>  <INDEX>
472375

>  <Name>
Tripos 1557-13590

>  <RI>
-1.67511e+09

>  <Rbt.Current_Directory>
/aloy/home/acomajuncosa/PocketVec_v2/GitLab_repo

>  <Rbt.Executable>
rbdock ($Id: //depot/dev/client3/rdock/2021.1/src/exe/rbdock.cxx#4 $)

>  <Rbt.Library>
libRbt.so (2021.1, Build901 2021/07/19)

>  <Rbt.Parameter_File>
results/run_pocketvec/dock.prm

>  <Rbt.Receptor>
results/run_pocketvec/st_parameters.prm

>  <SCORE>
-11.8779

>  <SCORE.INTER>
-9.43908

>  <SCORE.INTER.CONST>
1

>  <SCORE.INTER.POLAR>
-1.17049

>  <SCORE.INTER.REPUL>
0

>  <SCORE.INTER.ROT>
6

>  <SCORE.INTER.VDW>
-16.8594

>  <SCORE.INTER.norm>
-0.363041

>  <SCORE.INTRA>
-3.94351e-13

>  <SCORE.INTRA.DIHEDRAL>
-6.12843e-13

>  <SCORE.INTRA.DIHEDRAL.0>
15.0384

>  <SCORE.INTRA.POLAR>
0

>  <SCORE.INTRA.POLAR.0>
0

>  <SCORE.INTRA.REPUL>
0

>  <SCORE.INTRA.REPUL.0>
0

>  <SCORE.INTRA.VDW>
-8.79297e-14

>  <SCORE.INTRA.VDW.0>
-2.46225

>  <SCORE.INTRA.norm>
-1.51674e-14

>  <SCORE.RESTR>
0

>  <SCORE.RESTR.CAVITY>
0

>  <SCORE.RESTR.norm>
0

>  <SCORE.SYSTEM>
-2.43879

>  <SCORE.SYSTEM.CONST>
0

>  <SCORE.SYSTEM.DIHEDRAL>
0.92358

>  <SCORE.SYSTEM.POLAR>
-0.994987

>  <SCORE.SYSTEM.REPUL>
0.0102494

>  <SCORE.SYSTEM.VDW>
0.431133

>  <SCORE.SYSTEM.norm>
-0.0937995

>  <SCORE.heavy>
26

>  <SCORE.norm>
-0.456841

$$$$
EMC Microcollections 013A0485
  rDOCK(R)          3D
libRbt.so/2021.1/901 2021/07/19
 25 26  0  0  0  0  0  0  0  0999 V2000
   -1.6074    5.9730   10.0410 C   0  0  0  0  0  0
   -2.2381    5.0514   10.8384 N   0  0  0  0  0  0
   -3.1952    4.4768   10.1455 C   0  0  0  0  0  0
   -3.3841    5.0059    8.5258 S   0  0  0  0  0  0
   -0.4636    6.7957   10.5694 C   0  0  0  0  0  0
   -2.0813    6.0968    8.7578 C   0  0  0  0  0  0
   -0.1628    6.4938   11.8870 N   0  0  0  0  0  0
    0.1198    7.6230    9.8749 O   0  0  0  0  0  0
   -4.1021    3.4021   10.6977 C   0  0  0  0  0  0
    0.9031    7.1499   12.6201 C   0  0  0  0  0  0
    4.7152    5.2076   11.9682 C   0  0  0  0  0  0
    2.2385    6.4685   12.3879 C   0  0  0  0  0  0
   -4.5552    3.7201   12.0857 N   0  3  0  0  0  0
    6.2224    4.4608   11.7112 Cl  0  0  0  0  0  0
    4.3896    6.3627   11.2549 C   0  0  0  0  0  0
    3.8071    4.6754   12.8833 C   0  0  0  0  0  0
    3.1569    6.9890   11.4619 C   0  0  0  0  0  0
    2.5749    5.3000   13.0905 C   0  0  0  0  0  0
   -3.3969    2.0500   10.7372 C   0  0  0  0  0  0
   -4.2755    0.8454   11.1448 C   0  0  0  0  0  0
   -3.5368   -0.4809   11.0365 C   0  0  0  0  0  0
   -0.7088    5.7862   12.3575 H   0  0  0  0  0  0
   -3.7548    3.7592   12.7004 H   0  0  0  0  0  0
   -5.1904    3.0030   12.4047 H   0  0  0  0  0  0
   -5.0265    4.6138   12.0895 H   0  0  0  0  0  0
  1  2  1  0  0  0
  1  5  1  0  0  0
  1  6  2  0  0  0
  2  3  2  0  0  0
  3  4  1  0  0  0
  3  9  1  0  0  0
  4  6  1  0  0  0
  5  7  1  0  0  0
  5  8  2  0  0  0
  7 10  1  0  0  0
  7 22  1  0  0  0
  9 13  1  0  0  0
  9 19  1  0  0  0
 10 12  1  0  0  0
 11 14  1  0  0  0
 11 15  2  0  0  0
 11 16  1  0  0  0
 12 17  2  0  0  0
 12 18  1  0  0  0
 13 23  1  0  0  0
 13 24  1  0  0  0
 13 25  1  0  0  0
 15 17  1  0  0  0
 16 18  2  0  0  0
 19 20  1  0  0  0
 20 21  1  0  0  0
M  END
>  <$CLUSTER>
344

>  <CHROM.0>
178.19003357,171.57315584,73.47235226

>  <CHROM.1>
-0.07767501,4.86419099,11.03002995,2.93535249,0.25382223,2.86505103

>  <INDEX>
221508

>  <Name>
EMC Microcollections 013A0485

>  <RI>
-1.67511e+09

>  <Rbt.Current_Directory>
/aloy/home/acomajuncosa/PocketVec_v2/GitLab_repo

>  <Rbt.Executable>
rbdock ($Id: //depot/dev/client3/rdock/2021.1/src/exe/rbdock.cxx#4 $)

>  <Rbt.Library>
libRbt.so (2021.1, Build901 2021/07/19)

>  <Rbt.Parameter_File>
results/run_pocketvec/dock.prm

>  <Rbt.Receptor>
results/run_pocketvec/st_parameters.prm

>  <SCORE>
-8.09015

>  <SCORE.INTER>
-2.635

>  <SCORE.INTER.CONST>
1

>  <SCORE.INTER.POLAR>
0

>  <SCORE.INTER.REPUL>
0

>  <SCORE.INTER.ROT>
6

>  <SCORE.INTER.VDW>
-14.035

>  <SCORE.INTER.norm>
-0.125476

>  <SCORE.INTRA>
5.01488e-13

>  <SCORE.INTRA.DIHEDRAL>
-2.70006e-13

>  <SCORE.INTRA.DIHEDRAL.0>
3.26392

>  <SCORE.INTRA.POLAR>
-1.94289e-14

>  <SCORE.INTRA.POLAR.0>
-0.0959042

>  <SCORE.INTRA.REPUL>
0

>  <SCORE.INTRA.REPUL.0>
0

>  <SCORE.INTRA.VDW>
7.02549e-13

>  <SCORE.INTRA.VDW.0>
-2.37704

>  <SCORE.INTRA.norm>
2.38804e-14

>  <SCORE.RESTR>
0

>  <SCORE.RESTR.CAVITY>
0

>  <SCORE.RESTR.norm>
0

>  <SCORE.SYSTEM>
-5.45515

>  <SCORE.SYSTEM.CONST>
0

>  <SCORE.SYSTEM.DIHEDRAL>
1.27561

>  <SCORE.SYSTEM.POLAR>
-1.74237

>  <SCORE.SYSTEM.VDW>
-0.16889

>  <SCORE.SYSTEM.norm>
-0.259769

>  <SCORE.heavy>
21

>  <SCORE.norm>
-0.385245

$$$$
Asinex ASN 06601079
  rDOCK(R)          3D
libRbt.so/2021.1/901 2021/07/19
 31 34  0  0  0  0  0  0  0  0999 V2000
    1.0302    6.4174   12.3820 C   0  0  0  0  0  0
   -2.8060    2.8106   12.2787 N   0  0  0  0  0  0
   -1.5700    2.5608   11.9246 C   0  0  0  0  0  0
   -1.4765    1.4349   11.1556 N   0  0  0  0  0  0
    1.0878    5.2857   11.5650 N   0  0  0  0  0  0
   -0.1633    6.6913   12.9685 N   0  0  0  0  0  0
   -3.5413    1.7954   11.7207 C   0  0  0  0  0  0
   -2.7381    0.9305   11.0188 C   0  0  0  0  0  0
   -0.3582    3.3888   12.2683 C   0  0  0  0  0  0
    2.2989    7.4695   12.7131 S   0  0  0  0  0  0
   -0.1034    4.4798   11.2378 C   0  0  0  0  0  0
    2.3475    4.8075   10.9605 C   0  0  0  0  0  0
   -0.8705    7.5375   13.7966 C   0  0  0  0  0  0
   -0.2586    8.6485   14.3804 C   0  0  0  0  0  0
    2.5564    5.3488    9.5529 C   0  0  0  0  0  0
   -0.9797    9.5055   15.2208 C   0  0  0  0  0  0
   -4.9331    1.5591   11.7799 C   0  0  0  0  0  0
   -2.9523    8.1601   14.9182 C   0  0  0  0  0  0
   -3.2236   -0.2002   10.3410 C   0  0  0  0  0  0
   -2.2295    7.3068   14.0783 C   0  0  0  0  0  0
   -2.3243    9.2628   15.4915 C   0  0  0  0  0  0
   -0.3001   10.6893   15.8343 C   0  0  0  0  0  0
    3.3822    6.4550    9.3381 C   0  0  0  0  0  0
    1.8924    4.7601    8.4700 C   0  0  0  0  0  0
   -5.4450    0.4384   11.1134 C   0  0  0  0  0  0
   -4.6026   -0.4248   10.4079 C   0  0  0  0  0  0
    2.0836    5.2536    7.1769 C   0  0  0  0  0  0
    3.5713    6.9481    8.0430 C   0  0  0  0  0  0
    2.9244    6.3462    6.9644 C   0  0  0  0  0  0
   -0.6312    1.0476   10.7620 H   0  0  0  0  0  0
   -0.8052    5.9695   12.6726 H   0  0  0  0  0  0
  1  5  1  0  0  0
  1  6  1  0  0  0
  1 10  2  0  0  0
  2  3  2  0  0  0
  2  7  1  0  0  0
  3  4  1  0  0  0
  3  9  1  0  0  0
  4  8  1  0  0  0
  4 30  1  0  0  0
  5 11  1  0  0  0
  5 12  1  0  0  0
  6 13  1  0  0  0
  6 31  1  0  0  0
  7  8  2  0  0  0
  7 17  1  0  0  0
  8 19  1  0  0  0
  9 11  1  0  0  0
 12 15  1  0  0  0
 13 14  2  0  0  0
 13 20  1  0  0  0
 14 16  1  0  0  0
 15 23  1  0  0  0
 15 24  2  0  0  0
 16 21  2  0  0  0
 16 22  1  0  0  0
 17 25  2  0  0  0
 18 20  2  0  0  0
 18 21  1  0  0  0
 19 26  2  0  0  0
 23 28  2  0  0  0
 24 27  1  0  0  0
 25 26  1  0  0  0
 27 29  2  0  0  0
 28 29  1  0  0  0
M  END
>  <$CLUSTER>
257

>  <CHROM.0>
3.33193135,171.31458610,71.67678631

>  <CHROM.1>
-0.45935309,5.14730957,11.75453586,-0.92587897,-0.61937111,-2.46346554

>  <INDEX>
162964

>  <Name>
Asinex ASN 06601079

>  <RI>
-1.67511e+09

>  <Rbt.Current_Directory>
/aloy/home/acomajuncosa/PocketVec_v2/GitLab_repo

>  <Rbt.Executable>
rbdock ($Id: //depot/dev/client3/rdock/2021.1/src/exe/rbdock.cxx#4 $)

>  <Rbt.Library>
libRbt.so (2021.1, Build901 2021/07/19)

>  <Rbt.Parameter_File>
results/run_pocketvec/dock.prm

>  <Rbt.Receptor>
results/run_pocketvec/st_parameters.prm

>  <SCORE>
-13.2033

>  <SCORE.INTER>
-7.60468

>  <SCORE.INTER.CONST>
1

>  <SCORE.INTER.POLAR>
0

>  <SCORE.INTER.REPUL>
0

>  <SCORE.INTER.ROT>
6

>  <SCORE.INTER.VDW>
-19.0047

>  <SCORE.INTER.norm>
-0.26223

>  <SCORE.INTRA>
-1.43441e-13

>  <SCORE.INTRA.DIHEDRAL>
-2.02505e-13

>  <SCORE.INTRA.DIHEDRAL.0>
6.85377

>  <SCORE.INTRA.POLAR>
0

>  <SCORE.INTRA.POLAR.0>
0

>  <SCORE.INTRA.REPUL>
0

>  <SCORE.INTRA.REPUL.0>
0

>  <SCORE.INTRA.VDW>
-4.21885e-14

>  <SCORE.INTRA.VDW.0>
-2.34759

>  <SCORE.INTRA.norm>
-4.94623e-15

>  <SCORE.RESTR>
0

>  <SCORE.RESTR.CAVITY>
0

>  <SCORE.RESTR.norm>
0

>  <SCORE.SYSTEM>
-5.59859

>  <SCORE.SYSTEM.CONST>
0

>  <SCORE.SYSTEM.DIHEDRAL>
1.0933

>  <SCORE.SYSTEM.POLAR>
-1.7274

>  <SCORE.SYSTEM.VDW>
-0.272066

>  <SCORE.SYSTEM.norm>
-0.193055

>  <SCORE.heavy>
29

>  <SCORE.norm>
-0.455285

$$$$
Cerep CER0116166
  rDOCK(R)          3D
libRbt.so/2021.1/901 2021/07/19
 26 29  0  0  0  0  0  0  0  0999 V2000
   -5.6380    4.7498   13.6462 C   0  0  0  0  0  0
   -5.7320    3.4551   14.2134 C   0  0  0  0  0  0
   -5.0848    5.1612   12.3799 C   0  0  0  0  0  0
   -5.3410    2.1911   13.6020 C   0  0  0  0  0  0
   -6.1255    5.6778   14.4818 N   0  0  0  0  0  0
   -4.2934    4.3655   11.5991 O   0  0  0  0  0  0
   -5.2602    6.3644   11.8710 N   0  0  0  0  0  0
   -5.6316    1.9832   12.2657 N   0  0  0  0  0  0
   -4.0189    5.1965   10.5587 C   0  0  0  0  0  0
   -4.5669    6.3831   10.6749 N   0  0  0  0  0  0
   -6.5194    4.9948   15.6170 O   0  0  0  0  0  0
   -6.2813    3.6650   15.4581 C   0  0  0  0  0  0
   -4.7293    1.1337   14.2468 C   0  0  0  0  0  0
   -5.2190    0.7860   11.9138 C   0  0  0  0  0  0
   -4.4816   -0.1568   13.1419 S   0  0  0  0  0  0
   -3.0186    4.6443    9.2439 S   0  0  0  0  0  0
   -2.9830    6.1083    8.1854 C   0  0  0  0  0  0
   -0.6574    9.3093    9.9332 C   0  0  0  0  0  0
   -2.1659    7.2465    8.7900 C   0  0  0  0  0  0
    0.1304   10.2644   10.4278 F   0  0  0  0  0  0
   -2.0133    9.1901   10.2304 C   0  0  0  0  0  0
   -0.0504    8.3950    9.0710 C   0  0  0  0  0  0
   -2.7669    8.1583    9.6659 C   0  0  0  0  0  0
   -0.8000    7.3630    8.5047 C   0  0  0  0  0  0
   -6.6643    2.7941   16.5865 C   0  0  0  0  0  0
   -5.3610    0.2439   10.5549 C   0  0  0  0  0  0
  1  2  1  0  0  0
  1  3  1  0  0  0
  1  5  2  0  0  0
  2  4  1  0  0  0
  2 12  2  0  0  0
  3  6  1  0  0  0
  3  7  2  0  0  0
  4  8  1  0  0  0
  4 13  2  0  0  0
  5 11  1  0  0  0
  6  9  1  0  0  0
  7 10  1  0  0  0
  8 14  2  0  0  0
  9 10  2  0  0  0
  9 16  1  0  0  0
 11 12  1  0  0  0
 12 25  1  0  0  0
 13 15  1  0  0  0
 14 15  1  0  0  0
 14 26  1  0  0  0
 16 17  1  0  0  0
 17 19  1  0  0  0
 18 20  1  0  0  0
 18 21  2  0  0  0
 18 22  1  0  0  0
 19 23  2  0  0  0
 19 24  1  0  0  0
 21 23  1  0  0  0
 22 24  2  0  0  0
M  END
>  <$CLUSTER>
296

>  <CHROM.0>
0.20338534,172.66417804,73.37213623

>  <CHROM.1>
-3.99790271,4.77094170,11.75243505,2.64927247,-0.99990689,-2.74490653

>  <INDEX>
188204

>  <Name>
Cerep CER0116166

>  <RI>
-1.67511e+09

>  <Rbt.Current_Directory>
/aloy/home/acomajuncosa/PocketVec_v2/GitLab_repo

>  <Rbt.Executable>
rbdock ($Id: //depot/dev/client3/rdock/2021.1/src/exe/rbdock.cxx#4 $)

>  <Rbt.Library>
libRbt.so (2021.1, Build901 2021/07/19)

>  <Rbt.Parameter_File>
results/run_pocketvec/dock.prm

>  <Rbt.Receptor>
results/run_pocketvec/st_parameters.prm

>  <SCORE>
-11.4097

>  <SCORE.INTER>
-5.80477

>  <SCORE.INTER.CONST>
1

>  <SCORE.INTER.POLAR>
-0.803956

>  <SCORE.INTER.REPUL>
0

>  <SCORE.INTER.ROT>
5

>  <SCORE.INTER.VDW>
-13.4713

>  <SCORE.INTER.norm>
-0.22326

>  <SCORE.INTRA>
1.1342e-12

>  <SCORE.INTRA.DIHEDRAL>
1.06937e-12

>  <SCORE.INTRA.DIHEDRAL.0>
6.33938

>  <SCORE.INTRA.POLAR>
0

>  <SCORE.INTRA.POLAR.0>
0

>  <SCORE.INTRA.REPUL>
0

>  <SCORE.INTRA.REPUL.0>
0

>  <SCORE.INTRA.VDW>
5.9952e-13

>  <SCORE.INTRA.VDW.0>
-2.87307

>  <SCORE.INTRA.norm>
4.36232e-14

>  <SCORE.RESTR>
0

>  <SCORE.RESTR.CAVITY>
0

>  <SCORE.RESTR.norm>
0

>  <SCORE.SYSTEM>
-5.60496

>  <SCORE.SYSTEM.CONST>
0

>  <SCORE.SYSTEM.DIHEDRAL>
1.1739

>  <SCORE.SYSTEM.POLAR>
-1.74154

>  <SCORE.SYSTEM.VDW>
-0.270666

>  <SCORE.SYSTEM.norm>
-0.215575

>  <SCORE.heavy>
26

>  <SCORE.norm>
-0.438836

$$$$
Tripos 1554-07659
  rDOCK(R)          3D
libRbt.so/2021.1/901 2021/07/19
 26 27  0  0  0  0  0  0  0  0999 V2000
   -4.0376    0.2699   10.8087 S   0  0  0  0  0  0
   -2.3357    0.4544   10.9048 N   0  0  0  0  0  0
   -4.5072    0.7606   12.4530 C   0  0  0  0  0  0
   -4.3274   -1.1473   10.6941 O   0  0  0  0  0  0
   -4.6149    1.2181    9.8785 O   0  0  0  0  0  0
   -5.9325    1.2852   17.4583 C   0  0  0  0  0  0
   -5.7889    2.0110   16.2826 N   0  0  0  0  0  0
   -5.7142    0.0914   17.6400 O   0  0  0  0  0  0
   -4.5823   -0.1845   13.4891 C   0  0  0  0  0  0
   -4.8849    2.0935   12.7036 C   0  0  0  0  0  0
   -1.7997    1.7891   10.9193 C   0  0  0  0  0  0
   -0.2502    5.6458   11.1801 O   0  0  0  0  0  0
   -5.3490    1.5322   15.0105 C   0  0  0  0  0  0
   -0.7863    4.3870   11.0046 C   0  0  0  0  0  0
   -5.2943    2.4754   13.9817 C   0  0  0  0  0  0
   -4.9941    0.2052   14.7658 C   0  0  0  0  0  0
   -1.2025    2.2673   12.0887 C   0  0  0  0  0  0
   -1.8900    2.6106    9.7923 C   0  0  0  0  0  0
   -1.3815    3.9092    9.8378 C   0  0  0  0  0  0
   -0.6957    3.5677   12.1289 C   0  0  0  0  0  0
   -0.1621    6.5362   10.0615 C   0  0  0  0  0  0
   -6.4190    2.1627   18.5837 C   0  0  0  0  0  0
   -1.4471    7.3495    9.9398 C   0  0  0  0  0  0
    1.0179    7.4652   10.3372 C   0  0  0  0  0  0
   -1.7273   -0.3502   10.9498 H   0  0  0  0  0  0
   -6.0231    2.9918   16.3327 H   0  0  0  0  0  0
  1  2  1  0  0  0
  1  3  1  0  0  0
  1  4  2  0  0  0
  1  5  2  0  0  0
  2 11  1  0  0  0
  2 25  1  0  0  0
  3  9  1  0  0  0
  3 10  2  0  0  0
  6  7  1  0  0  0
  6  8  2  0  0  0
  6 22  1  0  0  0
  7 13  1  0  0  0
  7 26  1  0  0  0
  9 16  2  0  0  0
 10 15  1  0  0  0
 11 17  1  0  0  0
 11 18  2  0  0  0
 12 14  1  0  0  0
 12 21  1  0  0  0
 13 15  2  0  0  0
 13 16  1  0  0  0
 14 19  2  0  0  0
 14 20  1  0  0  0
 17 20  2  0  0  0
 18 19  1  0  0  0
 21 23  1  0  0  0
 21 24  1  0  0  0
M  END
>  <$CLUSTER>
717

>  <CHROM.0>
2.49223774,-174.50492998,-52.79541896

>  <CHROM.1>
-3.27143403,2.34452716,12.48315374,2.96443255,0.94441868,0.89189309

>  <INDEX>
467588

>  <Name>
Tripos 1554-07659

>  <RI>
-1.67511e+09

>  <Rbt.Current_Directory>
/aloy/home/acomajuncosa/PocketVec_v2/GitLab_repo

>  <Rbt.Executable>
rbdock ($Id: //depot/dev/client3/rdock/2021.1/src/exe/rbdock.cxx#4 $)

>  <Rbt.Library>
libRbt.so (2021.1, Build901 2021/07/19)

>  <Rbt.Parameter_File>
results/run_pocketvec/dock.prm

>  <Rbt.Receptor>
results/run_pocketvec/st_parameters.prm

>  <SCORE>
-11.6608

>  <SCORE.INTER>
-10.2733

>  <SCORE.INTER.CONST>
1

>  <SCORE.INTER.POLAR>
-1.27905

>  <SCORE.INTER.REPUL>
0.142651

>  <SCORE.INTER.ROT>
6

>  <SCORE.INTER.VDW>
-18.0378

>  <SCORE.INTER.norm>
-0.428055

>  <SCORE.INTRA>
-4.37872e-13

>  <SCORE.INTRA.DIHEDRAL>
-2.47624e-12

>  <SCORE.INTRA.DIHEDRAL.0>
16.9575

>  <SCORE.INTRA.POLAR>
0

>  <SCORE.INTRA.POLAR.0>
0

>  <SCORE.INTRA.REPUL>
0

>  <SCORE.INTRA.REPUL.0>
0

>  <SCORE.INTRA.VDW>
8.00249e-13

>  <SCORE.INTRA.VDW.0>
-2.69221

>  <SCORE.INTRA.norm>
-1.82447e-14

>  <SCORE.RESTR>
0

>  <SCORE.RESTR.CAVITY>
0

>  <SCORE.RESTR.norm>
0

>  <SCORE.SYSTEM>
-1.38751

>  <SCORE.SYSTEM.CONST>
0

>  <SCORE.SYSTEM.DIHEDRAL>
0.476356

>  <SCORE.SYSTEM.POLAR>
-0.994987

>  <SCORE.SYSTEM.REPUL>
0.0609744

>  <SCORE.SYSTEM.VDW>
1.4524

>  <SCORE.SYSTEM.norm>
-0.0578129

>  <SCORE.heavy>
24

>  <SCORE.norm>
-0.485867

$$$$
Princeton Biomolecular OSSK_115610
  rDOCK(R)          3D
libRbt.so/2021.1/901 2021/07/19
 23 24  0  0  0  0  0  0  0  0999 V2000
   -4.3588    2.1305   15.8669 S   0  0  0  0  0  0
   -5.5887    1.4463   14.8873 N   0  0  0  0  0  0
   -3.9595    3.5804   14.9167 C   0  0  0  0  0  0
   -4.9727    2.5895   17.0990 O   0  0  0  0  0  0
   -3.1843    1.2818   15.9003 O   0  0  0  0  0  0
   -3.2357    5.8704   13.4765 C   0  0  0  0  0  0
   -2.9303    3.5193   13.9549 C   0  0  0  0  0  0
   -4.5982    4.8035   15.1649 C   0  0  0  0  0  0
   -4.2430    5.9414   14.4404 C   0  0  0  0  0  0
   -2.5799    4.6619   13.2336 C   0  0  0  0  0  0
   -5.1997    0.8235   13.6508 C   0  0  0  0  0  0
   -4.4289   -0.3267   11.2272 C   0  0  0  0  0  0
   -2.8209    7.1159   12.6735 C   0  0  0  0  0  0
   -4.4506   -0.3553   13.6451 C   0  0  0  0  0  0
   -5.5627    1.4278   12.4433 C   0  0  0  0  0  0
   -4.0675   -0.9289   12.4321 C   0  0  0  0  0  0
   -5.1770    0.8503   11.2331 C   0  0  0  0  0  0
   -4.0444   -0.8997   10.0561 O   0  0  0  0  0  0
   -2.2644    8.2169   13.5823 C   0  0  0  0  0  0
   -3.9791    7.6461   11.8226 C   0  0  0  0  0  0
   -1.0111    7.8379   14.3478 C   0  0  0  0  0  0
   -6.5577    1.4799   15.1703 H   0  0  0  0  0  0
   -4.3260   -0.4347    9.2650 H   0  0  0  0  0  0
  1  2  1  0  0  0
  1  3  1  0  0  0
  1  4  2  0  0  0
  1  5  2  0  0  0
  2 11  1  0  0  0
  2 22  1  0  0  0
  3  7  1  0  0  0
  3  8  2  0  0  0
  6  9  2  0  0  0
  6 10  1  0  0  0
  6 13  1  0  0  0
  7 10  2  0  0  0
  8  9  1  0  0  0
 11 14  2  0  0  0
 11 15  1  0  0  0
 12 16  2  0  0  0
 12 17  1  0  0  0
 12 18  1  0  0  0
 13 19  1  0  0  0
 13 20  1  0  0  0
 14 16  1  0  0  0
 15 17  2  0  0  0
 18 23  1  0  0  0
 19 21  1  0  0  0
M  END
>  <$CLUSTER>
722

>  <CHROM.0>
178.08008885,171.54094738,70.43894576

>  <CHROM.1>
-3.95343458,3.13260849,13.77462927,2.68930834,-1.28774313,-1.90684712

>  <INDEX>
577938

>  <Name>
Princeton Biomolecular OSSK_115610

>  <RI>
-1.67511e+09

>  <Rbt.Current_Directory>
/aloy/home/acomajuncosa/PocketVec_v2/GitLab_repo

>  <Rbt.Executable>
rbdock ($Id: //depot/dev/client3/rdock/2021.1/src/exe/rbdock.cxx#4 $)

>  <Rbt.Library>
libRbt.so (2021.1, Build901 2021/07/19)

>  <Rbt.Parameter_File>
results/run_pocketvec/dock.prm

>  <Rbt.Receptor>
results/run_pocketvec/st_parameters.prm

>  <SCORE>
1.38925

>  <SCORE.INTER>
6.80624

>  <SCORE.INTER.CONST>
1

>  <SCORE.INTER.POLAR>
-0.619942

>  <SCORE.INTER.REPUL>
0.666525

>  <SCORE.INTER.ROT>
5

>  <SCORE.INTER.VDW>
-4.81858

>  <SCORE.INTER.norm>
0.324107

>  <SCORE.INTRA>
1.62093e-13

>  <SCORE.INTRA.DIHEDRAL>
-1.9611e-12

>  <SCORE.INTRA.DIHEDRAL.0>
14.3664

>  <SCORE.INTRA.POLAR>
0

>  <SCORE.INTRA.POLAR.0>
0

>  <SCORE.INTRA.REPUL>
0

>  <SCORE.INTRA.REPUL.0>
0

>  <SCORE.INTRA.VDW>
1.14264e-12

>  <SCORE.INTRA.VDW.0>
-2.45675

>  <SCORE.INTRA.norm>
7.71869e-15

>  <SCORE.RESTR>
0

>  <SCORE.RESTR.CAVITY>
0

>  <SCORE.RESTR.norm>
0

>  <SCORE.SYSTEM>
-5.41699

>  <SCORE.SYSTEM.CONST>
0

>  <SCORE.SYSTEM.DIHEDRAL>
0.946575

>  <SCORE.SYSTEM.POLAR>
-1.71693

>  <SCORE.SYSTEM.VDW>
-0.0527033

>  <SCORE.SYSTEM.norm>
-0.257952

>  <SCORE.heavy>
21

>  <SCORE.norm>
0.0661548

$$$$
Pyxis Discovery PYX 00000172
  rDOCK(R)          3D
libRbt.so/2021.1/901 2021/07/19
 27 29  0  0  0  0  0  0  0  0999 V2000
   -4.3037    1.5482   13.3449 C   0  0  0  0  0  0
   -4.3640    5.1367    9.4275 C   0  0  0  0  0  0
   -3.8349    3.6894   11.4037 N   0  3  0  0  0  0
   -3.3432    2.7121   13.6261 C   0  0  0  0  0  0
   -5.3600    1.9617   12.3107 C   0  0  0  0  0  0
   -3.8829    5.7545    8.3127 N   0  0  0  0  0  0
   -4.9639    1.0719   14.6398 C   0  0  0  0  0  0
   -3.2905    4.3716   10.1782 C   0  0  0  0  0  0
   -5.5329    5.1796    9.8035 O   0  0  0  0  0  0
   -4.7354    2.5333   11.0425 C   0  0  0  0  0  0
   -2.7316    3.2802   12.3487 C   0  0  0  0  0  0
   -5.7905    1.9674   15.3868 C   0  0  0  0  0  0
   -4.8114   -0.2190   15.1494 C   0  0  0  0  0  0
   -3.5363    0.4625   12.8177 O   0  0  0  0  0  0
   -6.2330    0.2674   17.0448 C   0  0  0  0  0  0
   -5.4327   -0.6232   16.3349 C   0  0  0  0  0  0
   -6.4122    1.5634   16.5704 C   0  0  0  0  0  0
   -6.7908   -0.1932   18.1635 F   0  0  0  0  0  0
   -4.7004    6.5653    7.4090 C   0  0  0  0  0  0
   -4.7503    8.0109    7.8950 C   0  0  0  0  0  0
   -4.1724    6.4868    5.9813 C   0  0  0  0  0  0
   -5.5452    8.9046    6.9484 C   0  0  0  0  0  0
   -4.9634    7.3708    5.0279 C   0  0  0  0  0  0
   -5.0161    8.8144    5.5203 C   0  0  0  0  0  0
   -4.4063    4.3607   11.8958 H   0  0  0  0  0  0
   -2.9029    5.6463    8.0966 H   0  0  0  0  0  0
   -3.1239    0.7658   12.0059 H   0  0  0  0  0  0
  1  4  1  0  0  0
  1  5  1  0  0  0
  1  7  1  0  0  0
  1 14  1  0  0  0
  2  6  1  0  0  0
  2  8  1  0  0  0
  2  9  2  0  0  0
  3  8  1  0  0  0
  3 10  1  0  0  0
  3 11  1  0  0  0
  3 25  1  0  0  0
  4 11  1  0  0  0
  5 10  1  0  0  0
  6 19  1  0  0  0
  6 26  1  0  0  0
  7 12  1  0  0  0
  7 13  2  0  0  0
 12 17  2  0  0  0
 13 16  1  0  0  0
 14 27  1  0  0  0
 15 16  2  0  0  0
 15 17  1  0  0  0
 15 18  1  0  0  0
 19 20  1  0  0  0
 19 21  1  0  0  0
 20 22  1  0  0  0
 21 23  1  0  0  0
 22 24  1  0  0  0
 23 24  1  0  0  0
M  END
>  <$CLUSTER>
935

>  <CHROM.0>
177.31535921,172.21839991,73.84265742

>  <CHROM.1>
-4.77175798,3.60810120,11.52701741,-1.65954311,0.65103140,-0.87545655

>  <INDEX>
611698

>  <Name>
Pyxis Discovery PYX 00000172

>  <RI>
-1.67511e+09

>  <Rbt.Current_Directory>
/aloy/home/acomajuncosa/PocketVec_v2/GitLab_repo

>  <Rbt.Executable>
rbdock ($Id: //depot/dev/client3/rdock/2021.1/src/exe/rbdock.cxx#4 $)

>  <Rbt.Library>
libRbt.so (2021.1, Build901 2021/07/19)

>  <Rbt.Parameter_File>
results/run_pocketvec/dock.prm

>  <Rbt.Receptor>
results/run_pocketvec/st_parameters.prm

>  <SCORE>
-12.1764

>  <SCORE.INTER>
-6.71836

>  <SCORE.INTER.CONST>
1

>  <SCORE.INTER.POLAR>
0

>  <SCORE.INTER.REPUL>
0

>  <SCORE.INTER.ROT>
4

>  <SCORE.INTER.VDW>
-16.1184

>  <SCORE.INTER.norm>
-0.279932

>  <SCORE.INTRA>
2.70142e-12

>  <SCORE.INTRA.DIHEDRAL>
3.29514e-13

>  <SCORE.INTRA.DIHEDRAL.0>
3.69569

>  <SCORE.INTRA.POLAR>
0

>  <SCORE.INTRA.POLAR.0>
0

>  <SCORE.INTRA.REPUL>
0

>  <SCORE.INTRA.REPUL.0>
0

>  <SCORE.INTRA.VDW>
2.53667e-12

>  <SCORE.INTRA.VDW.0>
0.0348676

>  <SCORE.INTRA.norm>
1.12559e-13

>  <SCORE.RESTR>
0

>  <SCORE.RESTR.CAVITY>
0

>  <SCORE.RESTR.norm>
0

>  <SCORE.SYSTEM>
-5.45805

>  <SCORE.SYSTEM.CONST>
0

>  <SCORE.SYSTEM.DIHEDRAL>
1.27893

>  <SCORE.SYSTEM.POLAR>
-1.74542

>  <SCORE.SYSTEM.VDW>
-0.163078

>  <SCORE.SYSTEM.norm>
-0.227419

>  <SCORE.heavy>
24

>  <SCORE.norm>
-0.50735

$$$$
Chem T&I IVK/0000448
  rDOCK(R)          3D
libRbt.so/2021.1/901 2021/07/19
 26 28  0  0  0  0  0  0  0  0999 V2000
   -2.8545    4.0288   13.4908 S   0  0  0  0  0  0
   -1.5388    4.7864   12.7754 N   0  0  0  0  0  0
    1.1576    5.8598   12.1106 N   0  0  0  0  0  0
   -3.7184    4.7662   11.9022 C   0  0  0  0  0  0
   -2.9423    2.6398   13.2713 O   0  0  0  0  0  0
   -3.4703    4.7471   14.5348 O   0  0  0  0  0  0
   -0.4443    3.9330   12.2449 C   0  0  0  0  0  0
   -0.9527    5.9662   13.4642 C   0  0  0  0  0  0
    2.4541    6.0791   12.2865 C   0  0  0  0  0  0
    0.0740    6.7240   12.6001 C   0  0  0  0  0  0
    0.5767    4.7146   11.3957 C   0  0  0  0  0  0
    5.2404    6.5503   12.6642 C   0  0  0  0  0  0
    6.6756    6.8268   12.8783 C   0  0  0  0  0  0
    7.0194    7.8304   13.4978 O   0  0  0  0  0  0
    2.9355    7.2059   12.9868 C   0  0  0  0  0  0
    3.4367    5.2015   11.7856 C   0  0  0  0  0  0
    4.8064    5.4306   11.9696 C   0  0  0  0  0  0
    4.3037    7.4401   13.1740 C   0  0  0  0  0  0
   -4.5205    5.9490   12.0140 C   0  0  0  0  0  0
   -4.0577    3.8926   10.8098 C   0  0  0  0  0  0
   -4.8380    4.3441    9.7446 C   0  0  0  0  0  0
   -5.3001    6.3948   10.9449 C   0  0  0  0  0  0
   -5.4573    5.5935    9.8128 C   0  0  0  0  0  0
    7.6988    5.8683   12.3288 C   0  0  0  0  0  0
   -6.3706    6.0432    8.6905 C   0  0  0  0  0  0
   -5.5899    6.8288    7.6486 C   0  0  0  0  0  0
  1  2  1  0  0  0
  1  4  1  0  0  0
  1  5  2  0  0  0
  1  6  2  0  0  0
  2  7  1  0  0  0
  2  8  1  0  0  0
  3  9  1  0  0  0
  3 10  1  0  0  0
  3 11  1  0  0  0
  4 19  1  0  0  0
  4 20  2  0  0  0
  7 11  1  0  0  0
  8 10  1  0  0  0
  9 15  1  0  0  0
  9 16  2  0  0  0
 12 13  1  0  0  0
 12 17  2  0  0  0
 12 18  1  0  0  0
 13 14  2  0  0  0
 13 24  1  0  0  0
 15 18  2  0  0  0
 16 17  1  0  0  0
 19 22  2  0  0  0
 20 21  1  0  0  0
 21 23  2  0  0  0
 22 23  1  0  0  0
 23 25  1  0  0  0
 25 26  1  0  0  0
M  END
>  <$CLUSTER>
726

>  <CHROM.0>
-0.29473139,172.04869106,74.07047034

>  <CHROM.1>
-0.36237642,5.50863321,12.06210754,3.05884800,-0.21030235,-1.02987629

>  <INDEX>
553125

>  <Name>
Chem T&I IVK/0000448

>  <RI>
-1.67511e+09

>  <Rbt.Current_Directory>
/aloy/home/acomajuncosa/PocketVec_v2/GitLab_repo

>  <Rbt.Executable>
rbdock ($Id: //depot/dev/client3/rdock/2021.1/src/exe/rbdock.cxx#4 $)

>  <Rbt.Library>
libRbt.so (2021.1, Build901 2021/07/19)

>  <Rbt.Parameter_File>
results/run_pocketvec/dock.prm

>  <Rbt.Receptor>
results/run_pocketvec/st_parameters.prm

>  <SCORE>
-9.4596

>  <SCORE.INTER>
-3.84932

>  <SCORE.INTER.CONST>
1

>  <SCORE.INTER.POLAR>
0

>  <SCORE.INTER.REPUL>
0

>  <SCORE.INTER.ROT>
5

>  <SCORE.INTER.VDW>
-14.2493

>  <SCORE.INTER.norm>
-0.148051

>  <SCORE.INTRA>
3.70448e-12

>  <SCORE.INTRA.DIHEDRAL>
-6.92779e-14

>  <SCORE.INTRA.DIHEDRAL.0>
4.52287

>  <SCORE.INTRA.POLAR>
0

>  <SCORE.INTRA.POLAR.0>
0

>  <SCORE.INTRA.REPUL>
0

>  <SCORE.INTRA.REPUL.0>
0

>  <SCORE.INTRA.VDW>
3.73912e-12

>  <SCORE.INTRA.VDW.0>
0.716007

>  <SCORE.INTRA.norm>
1.4248e-13

>  <SCORE.RESTR>
0

>  <SCORE.RESTR.CAVITY>
0

>  <SCORE.RESTR.norm>
0

>  <SCORE.SYSTEM>
-5.61029

>  <SCORE.SYSTEM.CONST>
0

>  <SCORE.SYSTEM.DIHEDRAL>
1.30547

>  <SCORE.SYSTEM.POLAR>
-1.74729

>  <SCORE.SYSTEM.VDW>
-0.322229

>  <SCORE.SYSTEM.norm>
-0.21578

>  <SCORE.heavy>
26

>  <SCORE.norm>
-0.363831

$$$$
Life Chemicals F0577-0037
  rDOCK(R)          3D
libRbt.so/2021.1/901 2021/07/19
 30 33  0  0  0  0  0  0  0  0999 V2000
   -3.8472    6.2562   11.8574 C   0  0  0  0  0  0
   -2.9160    7.2370   11.9832 C   0  0  0  0  0  0
   -4.6602    5.8599   12.9055 N   0  0  0  0  0  0
   -2.8181    7.9773   13.2698 C   0  0  0  0  0  0
   -3.6652    7.5148   14.2531 N   0  0  0  0  0  0
   -2.3768    7.0081    9.5171 C   0  0  0  0  0  0
   -1.9791    7.6396   10.8454 C   0  0  0  0  0  0
   -3.9780    5.6557   10.6093 N   0  0  0  0  0  0
   -3.3107    6.0395    9.4646 C   0  0  0  0  0  0
   -4.5371    6.4850   14.0259 C   0  0  0  0  0  0
   -1.7662    7.5117    8.2546 C   0  0  0  0  0  0
   -0.5392    7.2281   11.1926 C   0  0  0  0  0  0
   -2.0540    8.9241   13.4262 O   0  0  0  0  0  0
    2.1311    6.5782   11.8349 C   0  0  0  0  0  0
   -5.4966    6.1070   15.4212 S   0  0  0  0  0  0
   -0.9784    8.4552    8.2704 O   0  0  0  0  0  0
    0.4538    8.2364   11.3171 C   0  0  0  0  0  0
   -0.1473    5.9029   11.4038 C   0  0  0  0  0  0
    1.7730    7.9072   11.6345 C   0  0  0  0  0  0
    1.1716    5.5761   11.7209 C   0  0  0  0  0  0
   -3.6957    5.3291    8.1935 C   0  0  0  0  0  0
    3.5886    6.2439   12.1832 C   0  0  0  0  0  0
   -2.1968    6.8956    6.9414 C   0  0  0  0  0  0
   -2.6208    5.4487    7.1204 C   0  0  0  0  0  0
   -6.4939    4.7406   14.7890 C   0  0  0  0  0  0
    4.2365    5.3637   11.1103 C   0  0  0  0  0  0
    3.7022    5.5926   13.5647 C   0  0  0  0  0  0
   -5.6808    3.4677   14.5746 C   0  0  0  0  0  0
   -3.6418    7.9469   15.1656 H   0  0  0  0  0  0
   -4.6138    4.8750   10.5352 H   0  0  0  0  0  0
  1  2  2  0  0  0
  1  3  1  0  0  0
  1  8  1  0  0  0
  2  4  1  0  0  0
  2  7  1  0  0  0
  3 10  2  0  0  0
  4  5  1  0  0  0
  4 13  2  0  0  0
  5 10  1  0  0  0
  5 29  1  0  0  0
  6  7  1  0  0  0
  6  9  2  0  0  0
  6 11  1  0  0  0
  7 12  1  0  0  0
  8  9  1  0  0  0
  8 30  1  0  0  0
  9 21  1  0  0  0
 10 15  1  0  0  0
 11 16  2  0  0  0
 11 23  1  0  0  0
 12 17  2  0  0  0
 12 18  1  0  0  0
 14 19  2  0  0  0
 14 20  1  0  0  0
 14 22  1  0  0  0
 15 25  1  0  0  0
 17 19  1  0  0  0
 18 20  2  0  0  0
 21 24  1  0  0  0
 22 26  1  0  0  0
 22 27  1  0  0  0
 23 24  1  0  0  0
 25 28  1  0  0  0
M  END
>  <$CLUSTER>
606

>  <CHROM.0>
0.08926267,171.92377838,75.75769276

>  <CHROM.1>
-1.91809812,6.50661004,11.69034072,2.68821015,0.07905877,1.65648554

>  <INDEX>
274978

>  <Name>
Life Chemicals F0577-0037

>  <RI>
-1.67511e+09

>  <Rbt.Current_Directory>
/aloy/home/acomajuncosa/PocketVec_v2/GitLab_repo

>  <Rbt.Executable>
rbdock ($Id: //depot/dev/client3/rdock/2021.1/src/exe/rbdock.cxx#4 $)

>  <Rbt.Library>
libRbt.so (2021.1, Build901 2021/07/19)

>  <Rbt.Parameter_File>
results/run_pocketvec/dock.prm

>  <Rbt.Receptor>
results/run_pocketvec/st_parameters.prm

>  <SCORE>
-8.20722

>  <SCORE.INTER>
-2.618

>  <SCORE.INTER.CONST>
1

>  <SCORE.INTER.POLAR>
0

>  <SCORE.INTER.REPUL>
0

>  <SCORE.INTER.ROT>
4

>  <SCORE.INTER.VDW>
-12.018

>  <SCORE.INTER.norm>
-0.0935

>  <SCORE.INTRA>
-1.89182e-13

>  <SCORE.INTRA.DIHEDRAL>
-3.71703e-13

>  <SCORE.INTRA.DIHEDRAL.0>
3.62382

>  <SCORE.INTRA.POLAR>
0

>  <SCORE.INTRA.POLAR.0>
0

>  <SCORE.INTRA.REPUL>
0

>  <SCORE.INTRA.REPUL.0>
0

>  <SCORE.INTRA.VDW>
-3.33067e-15

>  <SCORE.INTRA.VDW.0>
-1.48029

>  <SCORE.INTRA.norm>
-6.7565e-15

>  <SCORE.RESTR>
0

>  <SCORE.RESTR.CAVITY>
0

>  <SCORE.RESTR.norm>
0

>  <SCORE.SYSTEM>
-5.58922

>  <SCORE.SYSTEM.CONST>
0

>  <SCORE.SYSTEM.DIHEDRAL>
1.53642

>  <SCORE.SYSTEM.POLAR>
-1.76099

>  <SCORE.SYSTEM.VDW>
-0.370076

>  <SCORE.SYSTEM.norm>
-0.199615

>  <SCORE.heavy>
28

>  <SCORE.norm>
-0.293115

$$$$
Life Chemicals F0642-0697
  rDOCK(R)          3D
libRbt.so/2021.1/901 2021/07/19
 25 27  0  0  0  0  0  0  0  0999 V2000
   -3.2254    2.6425   12.2317 N   0  0  0  0  0  0
   -3.8813    1.5317   11.9565 C   0  0  0  0  0  0
   -2.2802    2.8941   11.2571 C   0  0  0  0  0  0
   -3.3764    0.7464   10.4976 S   0  0  0  0  0  0
   -2.2157    1.9748   10.2367 C   0  0  0  0  0  0
   -5.2771    0.7797   15.0131 C   0  0  0  0  0  0
   -5.3249    1.5426   13.8656 N   0  0  0  0  0  0
   -4.8751    0.9853   12.6957 N   0  0  0  0  0  0
   -5.8042    1.5152   16.2157 C   0  0  0  0  0  0
   -1.3948    4.0202   11.2501 C   0  0  0  0  0  0
   -4.8845   -0.3827   15.0883 O   0  0  0  0  0  0
   -5.3288    1.0521   17.4783 C   0  0  0  0  0  0
   -6.7203    2.5326   16.1646 C   0  0  0  0  0  0
   -6.6936    2.7159   18.5781 C   0  0  0  0  0  0
   -5.7759    1.6690   18.6480 C   0  0  0  0  0  0
   -7.1659    3.1455   17.3384 C   0  0  0  0  0  0
   -7.0662    3.2526   19.7402 F   0  0  0  0  0  0
   -1.5041    4.9029   12.2926 O   0  0  0  0  0  0
   -1.3041    2.0928    9.1702 C   0  0  0  0  0  0
   -0.4436    3.1901    9.1672 C   0  0  0  0  0  0
   -0.4844    4.1379   10.1877 C   0  0  0  0  0  0
   -0.6270    6.0288   12.2970 C   0  0  0  0  0  0
   -0.9331    6.8530   13.5333 C   0  0  0  0  0  0
   -5.6823    2.4869   13.8860 H   0  0  0  0  0  0
   -5.3040    0.1304   12.3715 H   0  0  0  0  0  0
  1  2  2  0  0  0
  1  3  1  0  0  0
  2  4  1  0  0  0
  2  8  1  0  0  0
  3  5  2  0  0  0
  3 10  1  0  0  0
  4  5  1  0  0  0
  5 19  1  0  0  0
  6  7  1  0  0  0
  6  9  1  0  0  0
  6 11  2  0  0  0
  7  8  1  0  0  0
  7 24  1  0  0  0
  8 25  1  0  0  0
  9 12  2  0  0  0
  9 13  1  0  0  0
 10 18  1  0  0  0
 10 21  2  0  0  0
 12 15  1  0  0  0
 13 16  2  0  0  0
 14 15  2  0  0  0
 14 16  1  0  0  0
 14 17  1  0  0  0
 18 22  1  0  0  0
 19 20  2  0  0  0
 20 21  1  0  0  0
 22 23  1  0  0  0
M  END
>  <$CLUSTER>
735

>  <CHROM.0>
2.52990565,170.97856648,73.91118581

>  <CHROM.1>
-3.77810147,2.52907659,13.60568416,0.53401315,-0.86576396,-2.31745900

>  <INDEX>
280059

>  <Name>
Life Chemicals F0642-0697

>  <RI>
-1.67511e+09

>  <Rbt.Current_Directory>
/aloy/home/acomajuncosa/PocketVec_v2/GitLab_repo

>  <Rbt.Executable>
rbdock ($Id: //depot/dev/client3/rdock/2021.1/src/exe/rbdock.cxx#4 $)

>  <Rbt.Library>
libRbt.so (2021.1, Build901 2021/07/19)

>  <Rbt.Parameter_File>
results/run_pocketvec/dock.prm

>  <Rbt.Receptor>
results/run_pocketvec/st_parameters.prm

>  <SCORE>
-4.06714

>  <SCORE.INTER>
1.54063

>  <SCORE.INTER.CONST>
1

>  <SCORE.INTER.POLAR>
0

>  <SCORE.INTER.REPUL>
0.180742

>  <SCORE.INTER.ROT>
5

>  <SCORE.INTER.VDW>
-9.76308

>  <SCORE.INTER.norm>
0.0669838

>  <SCORE.INTRA>
1.05546e-12

>  <SCORE.INTRA.DIHEDRAL>
1.84741e-12

>  <SCORE.INTRA.DIHEDRAL.0>
3.22749

>  <SCORE.INTRA.POLAR>
0

>  <SCORE.INTRA.POLAR.0>
0

>  <SCORE.INTRA.REPUL>
0

>  <SCORE.INTRA.REPUL.0>
0

>  <SCORE.INTRA.VDW>
1.31756e-13

>  <SCORE.INTRA.VDW.0>
0.211182

>  <SCORE.INTRA.norm>
4.58896e-14

>  <SCORE.RESTR>
0

>  <SCORE.RESTR.CAVITY>
0

>  <SCORE.RESTR.norm>
0

>  <SCORE.SYSTEM>
-5.60777

>  <SCORE.SYSTEM.CONST>
0

>  <SCORE.SYSTEM.DIHEDRAL>
1.37536

>  <SCORE.SYSTEM.POLAR>
-1.74598

>  <SCORE.SYSTEM.VDW>
-0.359099

>  <SCORE.SYSTEM.norm>
-0.243816

>  <SCORE.heavy>
23

>  <SCORE.norm>
-0.176832

$$$$
Chem T&I AMSACS-26179
  rDOCK(R)          3D
libRbt.so/2021.1/901 2021/07/19
 21 22  0  0  0  0  0  0  0  0999 V2000
   -4.4224    4.0197   10.6022 S   0  0  0  0  0  0
   -4.7659    2.6622   11.5652 N   0  0  0  0  0  0
   -4.9733    2.7806   12.9812 C   0  0  0  0  0  0
   -2.7786    4.4133   11.1572 C   0  0  0  0  0  0
   -5.2760    3.9945   13.4898 N   0  0  0  0  0  0
   -5.2929    5.1286   10.9355 O   0  0  0  0  0  0
   -4.3032    3.5705    9.2265 O   0  0  0  0  0  0
   -1.6817    3.8393   10.5352 C   0  0  0  0  0  0
   -0.4000    4.1762   10.9725 C   0  0  0  0  0  0
   -5.5301    4.0598   14.8163 C   0  0  0  0  0  0
   -0.2319    5.0809   12.0212 C   0  0  0  0  0  0
   -2.6313    5.3242   12.2059 C   0  0  0  0  0  0
   -4.9592    1.6197   13.7459 C   0  0  0  0  0  0
   -1.3459    5.6540   12.6362 C   0  0  0  0  0  0
   -5.2272    1.7232   15.1077 C   0  0  0  0  0  0
   -5.5164    2.9640   15.6620 C   0  0  0  0  0  0
    0.7994    3.5684   10.3205 C   0  0  0  0  0  0
    1.1445    5.4339   12.4814 C   0  0  0  0  0  0
   -5.8450    5.4155   15.3816 C   0  0  0  0  0  0
   -5.2025    0.5000   15.9642 C   0  0  0  0  0  0
   -4.8251    1.7516   11.1319 H   0  0  0  0  0  0
  1  2  1  0  0  0
  1  4  1  0  0  0
  1  6  2  0  0  0
  1  7  2  0  0  0
  2  3  1  0  0  0
  2 21  1  0  0  0
  3  5  2  0  0  0
  3 13  1  0  0  0
  4  8  1  0  0  0
  4 12  2  0  0  0
  5 10  1  0  0  0
  8  9  2  0  0  0
  9 11  1  0  0  0
  9 17  1  0  0  0
 10 16  2  0  0  0
 10 19  1  0  0  0
 11 14  2  0  0  0
 11 18  1  0  0  0
 12 14  1  0  0  0
 13 15  2  0  0  0
 15 16  1  0  0  0
 15 20  1  0  0  0
M  END
>  <$CLUSTER>
688

>  <CHROM.0>
171.60295731,172.56415611,74.93638003

>  <CHROM.1>
-3.50459369,3.81215659,12.42404767,0.66869202,-0.24258940,-1.39548406

>  <INDEX>
523713

>  <Name>
Chem T&I AMSACS-26179

>  <RI>
-1.67511e+09

>  <Rbt.Current_Directory>
/aloy/home/acomajuncosa/PocketVec_v2/GitLab_repo

>  <Rbt.Executable>
rbdock ($Id: //depot/dev/client3/rdock/2021.1/src/exe/rbdock.cxx#4 $)

>  <Rbt.Library>
libRbt.so (2021.1, Build901 2021/07/19)

>  <Rbt.Parameter_File>
results/run_pocketvec/dock.prm

>  <Rbt.Receptor>
results/run_pocketvec/st_parameters.prm

>  <SCORE>
-13.2922

>  <SCORE.INTER>
-7.84568

>  <SCORE.INTER.CONST>
1

>  <SCORE.INTER.POLAR>
-0.712951

>  <SCORE.INTER.REPUL>
0

>  <SCORE.INTER.ROT>
3

>  <SCORE.INTER.VDW>
-13.8217

>  <SCORE.INTER.norm>
-0.392284

>  <SCORE.INTRA>
-3.92353e-13

>  <SCORE.INTRA.DIHEDRAL>
-1.74527e-13

>  <SCORE.INTRA.DIHEDRAL.0>
3.47064

>  <SCORE.INTRA.POLAR>
0

>  <SCORE.INTRA.POLAR.0>
0

>  <SCORE.INTRA.REPUL>
0

>  <SCORE.INTRA.REPUL.0>
0

>  <SCORE.INTRA.VDW>
-3.05089e-13

>  <SCORE.INTRA.VDW.0>
-2.22569

>  <SCORE.INTRA.norm>
-1.96176e-14

>  <SCORE.RESTR>
0

>  <SCORE.RESTR.CAVITY>
0

>  <SCORE.RESTR.norm>
0

>  <SCORE.SYSTEM>
-5.44654

>  <SCORE.SYSTEM.CONST>
0

>  <SCORE.SYSTEM.DIHEDRAL>
1.4956

>  <SCORE.SYSTEM.POLAR>
-1.75436

>  <SCORE.SYSTEM.VDW>
-0.229535

>  <SCORE.SYSTEM.norm>
-0.272327

>  <SCORE.heavy>
20

>  <SCORE.norm>
-0.664611

$$$$
Tripos 1527-02989
  rDOCK(R)          3D
libRbt.so/2021.1/901 2021/07/19
 22 23  0  0  0  0  0  0  0  0999 V2000
   -3.7261    2.1524   11.4041 C   0  0  0  0  0  0
   -0.7578    3.6464    7.7471 C   0  0  0  0  0  0
   -1.2062    2.7427    8.7121 C   0  0  0  0  0  0
   -2.6851    2.0814   10.4839 N   0  0  0  0  0  0
   -2.3002    3.0558    9.5344 C   0  0  0  0  0  0
   -1.3964    4.8728    7.5906 C   0  0  0  0  0  0
   -4.5147    3.0786   11.5696 O   0  0  0  0  0  0
   -3.7957    0.9995   12.1711 N   0  0  0  0  0  0
   -2.4831    5.1937    8.4014 C   0  0  0  0  0  0
    0.5732    3.2316    6.7690 Cl  0  0  0  0  0  0
   -2.9355    4.2907    9.3700 C   0  0  0  0  0  0
   -1.0347    5.7912    6.6956 F   0  0  0  0  0  0
   -4.7724    0.7582   13.2192 C   0  0  0  0  0  0
   -5.3250    1.0842   15.6527 C   0  0  0  0  0  0
   -4.3177    1.3393   14.5447 C   0  0  0  0  0  0
   -5.2492   -0.0824   16.4215 C   0  0  0  0  0  0
   -6.3584    1.9948   15.8917 C   0  0  0  0  0  0
   -7.2952    1.7506   16.8968 C   0  0  0  0  0  0
   -6.1873   -0.3253   17.4259 C   0  0  0  0  0  0
   -7.2078    0.5921   17.6632 C   0  0  0  0  0  0
   -2.1383    1.2321   10.4954 H   0  0  0  0  0  0
   -3.1174    0.2745   11.9873 H   0  0  0  0  0  0
  1  4  1  0  0  0
  1  7  2  0  0  0
  1  8  1  0  0  0
  2  3  2  0  0  0
  2  6  1  0  0  0
  2 10  1  0  0  0
  3  5  1  0  0  0
  4  5  1  0  0  0
  4 21  1  0  0  0
  5 11  2  0  0  0
  6  9  2  0  0  0
  6 12  1  0  0  0
  8 13  1  0  0  0
  8 22  1  0  0  0
  9 11  1  0  0  0
 13 15  1  0  0  0
 14 15  1  0  0  0
 14 16  1  0  0  0
 14 17  2  0  0  0
 16 19  2  0  0  0
 17 18  1  0  0  0
 18 20  2  0  0  0
 19 20  1  0  0  0
M  END
>  <$CLUSTER>
706

>  <CHROM.0>
-0.61436177,171.90735629,73.70940532

>  <CHROM.1>
-3.29334712,2.51481221,11.43577264,-2.30672208,0.74803575,-0.66349287

>  <INDEX>
449729

>  <Name>
Tripos 1527-02989

>  <RI>
-1.67511e+09

>  <Rbt.Current_Directory>
/aloy/home/acomajuncosa/PocketVec_v2/GitLab_repo

>  <Rbt.Executable>
rbdock ($Id: //depot/dev/client3/rdock/2021.1/src/exe/rbdock.cxx#4 $)

>  <Rbt.Library>
libRbt.so (2021.1, Build901 2021/07/19)

>  <Rbt.Parameter_File>
results/run_pocketvec/dock.prm

>  <Rbt.Receptor>
results/run_pocketvec/st_parameters.prm

>  <SCORE>
-16.5976

>  <SCORE.INTER>
-10.9893

>  <SCORE.INTER.CONST>
1

>  <SCORE.INTER.POLAR>
0

>  <SCORE.INTER.REPUL>
0

>  <SCORE.INTER.ROT>
4

>  <SCORE.INTER.VDW>
-20.3893

>  <SCORE.INTER.norm>
-0.549467

>  <SCORE.INTRA>
7.18314e-14

>  <SCORE.INTRA.DIHEDRAL>
1.91624e-13

>  <SCORE.INTRA.DIHEDRAL.0>
1.95309

>  <SCORE.INTRA.POLAR>
0

>  <SCORE.INTRA.POLAR.0>
0

>  <SCORE.INTRA.REPUL>
0

>  <SCORE.INTRA.REPUL.0>
0

>  <SCORE.INTRA.VDW>
-2.39808e-14

>  <SCORE.INTRA.VDW.0>
-0.875667

>  <SCORE.INTRA.norm>
3.59157e-15

>  <SCORE.RESTR>
0

>  <SCORE.RESTR.CAVITY>
0

>  <SCORE.RESTR.norm>
0

>  <SCORE.SYSTEM>
-5.60824

>  <SCORE.SYSTEM.CONST>
0

>  <SCORE.SYSTEM.DIHEDRAL>
1.27223

>  <SCORE.SYSTEM.POLAR>
-1.74432

>  <SCORE.SYSTEM.VDW>
-0.313649

>  <SCORE.SYSTEM.norm>
-0.280412

>  <SCORE.heavy>
20

>  <SCORE.norm>
-0.829879

$$$$
Enamine T0503-9700
  rDOCK(R)          3D
libRbt.so/2021.1/901 2021/07/19
 26 28  0  0  0  0  0  0  0  0999 V2000
   -4.3522    1.9563   13.6732 N   0  0  0  0  0  0
   -4.2117    1.2413   12.5153 C   0  0  0  0  0  0
   -3.3013    3.2602   12.2699 C   0  0  0  0  0  0
   -3.7930    3.2033   13.5288 C   0  0  0  0  0  0
   -1.0767    4.7216    7.8933 N   0  0  0  0  0  0
   -3.5502    2.0392   11.6093 C   0  0  0  0  0  0
   -1.0033    5.7338    8.7971 C   0  0  0  0  0  0
   -0.5329    4.9433    6.6739 C   0  0  0  0  0  0
   -0.4183    6.9257    8.5257 N   0  0  0  0  0  0
    0.0803    6.1222    6.3127 C   0  0  0  0  0  0
   -2.1562    4.4249   10.4666 N   0  0  0  0  0  0
    0.1081    7.0897    7.2906 C   0  0  0  0  0  0
   -5.0442    1.4124   14.8545 C   0  0  0  0  0  0
   -2.6013    4.4495   11.6861 C   0  0  0  0  0  0
   -1.5454    5.5768   10.0811 N   0  0  0  0  0  0
   -0.6131    3.9106    5.7665 O   0  0  0  0  0  0
   -4.7160   -0.1432   12.1930 C   0  0  0  0  0  0
   -3.8076    4.1887   14.6397 C   0  0  0  0  0  0
    0.7719    8.4565    6.9985 C   0  0  0  0  0  0
   -4.7802    0.1134   15.3041 C   0  0  0  0  0  0
   -5.9543    2.2143   15.5555 C   0  0  0  0  0  0
   -6.5904    1.7181   16.6949 C   0  0  0  0  0  0
   -5.4186   -0.3751   16.4456 C   0  0  0  0  0  0
   -6.3236    0.4252   17.1401 C   0  0  0  0  0  0
   -1.4802    6.3416   10.7385 H   0  0  0  0  0  0
   -0.2203    4.0915    4.9097 H   0  0  0  0  0  0
  1  2  1  0  0  0
  1  4  1  0  0  0
  1 13  1  0  0  0
  2  6  2  0  0  0
  2 17  1  0  0  0
  3  4  2  0  0  0
  3  6  1  0  0  0
  3 14  1  0  0  0
  4 18  1  0  0  0
  5  7  2  0  0  0
  5  8  1  0  0  0
  7  9  1  0  0  0
  7 15  1  0  0  0
  8 10  2  0  0  0
  8 16  1  0  0  0
  9 12  2  0  0  0
 10 12  1  0  0  0
 11 14  2  0  0  0
 11 15  1  0  0  0
 12 19  1  0  0  0
 13 20  1  0  0  0
 13 21  2  0  0  0
 15 25  1  0  0  0
 16 26  1  0  0  0
 20 23  2  0  0  0
 21 22  1  0  0  0
 22 24  2  0  0  0
 23 24  1  0  0  0
M  END
>  <$CLUSTER>
626

>  <CHROM.0>
-0.18461698,172.05214304,74.01925246

>  <CHROM.1>
-2.90250009,3.52256654,11.44992150,3.02539981,1.07705881,0.68705941

>  <INDEX>
409469

>  <Name>
Enamine T0503-9700

>  <RI>
-1.67511e+09

>  <Rbt.Current_Directory>
/aloy/home/acomajuncosa/PocketVec_v2/GitLab_repo

>  <Rbt.Executable>
rbdock ($Id: //depot/dev/client3/rdock/2021.1/src/exe/rbdock.cxx#4 $)

>  <Rbt.Library>
libRbt.so (2021.1, Build901 2021/07/19)

>  <Rbt.Parameter_File>
results/run_pocketvec/dock.prm

>  <Rbt.Receptor>
results/run_pocketvec/st_parameters.prm

>  <SCORE>
-11.29

>  <SCORE.INTER>
-5.67974

>  <SCORE.INTER.CONST>
1

>  <SCORE.INTER.POLAR>
0

>  <SCORE.INTER.REPUL>
0.000145972

>  <SCORE.INTER.ROT>
4

>  <SCORE.INTER.VDW>
-15.0805

>  <SCORE.INTER.norm>
-0.236656

>  <SCORE.INTRA>
-8.54317e-13

>  <SCORE.INTRA.DIHEDRAL>
1.45306e-12

>  <SCORE.INTRA.DIHEDRAL.0>
6.25719

>  <SCORE.INTRA.POLAR>
0

>  <SCORE.INTRA.POLAR.0>
0

>  <SCORE.INTRA.REPUL>
0

>  <SCORE.INTRA.REPUL.0>
0

>  <SCORE.INTRA.VDW>
-1.58085e-12

>  <SCORE.INTRA.VDW.0>
0.143582

>  <SCORE.INTRA.norm>
-3.55965e-14

>  <SCORE.RESTR>
0

>  <SCORE.RESTR.CAVITY>
0

>  <SCORE.RESTR.norm>
0

>  <SCORE.SYSTEM>
-5.61027

>  <SCORE.SYSTEM.CONST>
0

>  <SCORE.SYSTEM.DIHEDRAL>
1.29851

>  <SCORE.SYSTEM.POLAR>
-1.74687

>  <SCORE.SYSTEM.VDW>
-0.320157

>  <SCORE.SYSTEM.norm>
-0.233761

>  <SCORE.heavy>
24

>  <SCORE.norm>
-0.470417

$$$$
Tripos 1513-09513
  rDOCK(R)          3D
libRbt.so/2021.1/901 2021/07/19
 28 30  0  0  0  0  0  0  0  0999 V2000
   -1.3731    3.8021   11.6076 S   0  0  0  0  0  0
   -0.0420    4.8238   11.6928 N   0  0  0  0  0  0
    2.2131    6.5604   12.4170 N   0  0  0  0  0  0
    1.2165    4.2800   12.2668 C   0  0  0  0  0  0
    2.4639    5.1566   12.0036 C   0  0  0  0  0  0
    3.1763    7.3306   13.1024 C   0  0  0  0  0  0
   -1.0003    4.0527    9.7029 C   0  0  0  0  0  0
   -0.2508    6.1923   12.2314 C   0  0  0  0  0  0
    0.9283    7.1534   11.9915 C   0  0  0  0  0  0
   -1.0960    2.4344   11.7934 O   0  0  0  0  0  0
   -2.6251    4.4285   11.7559 O   0  0  0  0  0  0
   -1.4266    4.8482    4.5149 C   0  0  0  0  0  0
   -0.8479    3.9930    5.4422 N   0  0  0  0  0  0
    3.2899    8.7169   12.8887 C   0  0  0  0  0  0
   -2.1488    5.8177    4.7297 O   0  0  0  0  0  0
   -1.8168    4.9459    8.9311 C   0  0  0  0  0  0
   -0.3810    2.9880    8.9567 C   0  0  0  0  0  0
   -0.9344    4.0608    6.8612 C   0  0  0  0  0  0
    4.2427    9.4896   13.5590 C   0  0  0  0  0  0
   -1.7043    5.0056    7.5408 C   0  0  0  0  0  0
   -0.2734    3.0543    7.5657 C   0  0  0  0  0  0
    4.0660    6.7568   14.0287 C   0  0  0  0  0  0
    2.8757    5.1344   10.5267 C   0  0  0  0  0  0
    5.0198    7.5253   14.7042 C   0  0  0  0  0  0
   -1.0609    4.4548    3.1060 C   0  0  0  0  0  0
    5.1098    8.8937   14.4686 C   0  0  0  0  0  0
    4.3295   10.9584   13.2968 C   0  0  0  0  0  0
   -0.3002    3.2324    5.0656 H   0  0  0  0  0  0
  1  2  1  0  0  0
  1  7  1  0  0  0
  1 10  2  0  0  0
  1 11  2  0  0  0
  2  4  1  0  0  0
  2  8  1  0  0  0
  3  5  1  0  0  0
  3  6  1  0  0  0
  3  9  1  0  0  0
  4  5  1  0  0  0
  5 23  1  0  0  0
  6 14  2  0  0  0
  6 22  1  0  0  0
  7 16  2  0  0  0
  7 17  1  0  0  0
  8  9  1  0  0  0
 12 13  1  0  0  0
 12 15  2  0  0  0
 12 25  1  0  0  0
 13 18  1  0  0  0
 13 28  1  0  0  0
 14 19  1  0  0  0
 16 20  1  0  0  0
 17 21  2  0  0  0
 18 20  2  0  0  0
 18 21  1  0  0  0
 19 26  2  0  0  0
 19 27  1  0  0  0
 22 24  2  0  0  0
 24 26  1  0  0  0
M  END
>  <$CLUSTER>
690

>  <CHROM.0>
176.43080220,171.44792396,73.63343096

>  <CHROM.1>
0.65376748,5.54290399,10.45119402,2.45296188,-0.80258996,-1.34502426

>  <INDEX>
441294

>  <Name>
Tripos 1513-09513

>  <RI>
-1.67511e+09

>  <Rbt.Current_Directory>
/aloy/home/acomajuncosa/PocketVec_v2/GitLab_repo

>  <Rbt.Executable>
rbdock ($Id: //depot/dev/client3/rdock/2021.1/src/exe/rbdock.cxx#4 $)

>  <Rbt.Library>
libRbt.so (2021.1, Build901 2021/07/19)

>  <Rbt.Parameter_File>
results/run_pocketvec/dock.prm

>  <Rbt.Receptor>
results/run_pocketvec/st_parameters.prm

>  <SCORE>
-12.1298

>  <SCORE.INTER>
-6.67293

>  <SCORE.INTER.CONST>
1

>  <SCORE.INTER.POLAR>
-0.810023

>  <SCORE.INTER.REPUL>
0

>  <SCORE.INTER.ROT>
4

>  <SCORE.INTER.VDW>
-13.3188

>  <SCORE.INTER.norm>
-0.247145

>  <SCORE.INTRA>
7.80265e-13

>  <SCORE.INTRA.DIHEDRAL>
8.95284e-13

>  <SCORE.INTRA.DIHEDRAL.0>
7.5142

>  <SCORE.INTRA.POLAR>
0

>  <SCORE.INTRA.POLAR.0>
0

>  <SCORE.INTRA.REPUL>
0

>  <SCORE.INTRA.REPUL.0>
0

>  <SCORE.INTRA.VDW>
3.32623e-13

>  <SCORE.INTRA.VDW.0>
-1.92893

>  <SCORE.INTRA.norm>
2.88987e-14

>  <SCORE.RESTR>
0

>  <SCORE.RESTR.CAVITY>
0

>  <SCORE.RESTR.norm>
0

>  <SCORE.SYSTEM>
-5.45689

>  <SCORE.SYSTEM.CONST>
0

>  <SCORE.SYSTEM.DIHEDRAL>
1.32213

>  <SCORE.SYSTEM.POLAR>
-1.7437

>  <SCORE.SYSTEM.VDW>
-0.189378

>  <SCORE.SYSTEM.norm>
-0.202107

>  <SCORE.heavy>
27

>  <SCORE.norm>
-0.449252

$$$$
Chembridge 7916788
  rDOCK(R)          3D
libRbt.so/2021.1/901 2021/07/19
 22 23  0  0  0  0  0  0  0  0999 V2000
   -4.1711    2.6879   11.1733 S   0  0  0  0  0  0
   -4.8937    4.1950   11.5562 N   0  0  0  0  0  0
   -2.4572    3.1598   11.1076 C   0  0  0  0  0  0
   -4.3243    1.8143   12.3218 O   0  0  0  0  0  0
   -4.5618    2.2417    9.8507 O   0  0  0  0  0  0
   -1.8921    3.5560    9.8781 C   0  0  0  0  0  0
   -1.6401    3.0677   12.2431 C   0  0  0  0  0  0
   -4.9592    5.1947   10.5244 C   0  0  0  0  0  0
    0.2620    3.8098   10.9481 C   0  0  0  0  0  0
    2.0070    4.2220   10.7760 S   0  0  0  0  0  0
   -5.0217    7.1411    8.5248 C   0  0  0  0  0  0
   -0.5380    3.8876    9.8065 C   0  0  0  0  0  0
   -0.2877    3.4006   12.1643 C   0  0  0  0  0  0
   -4.1756    6.3464   10.6451 C   0  0  0  0  0  0
   -5.7728    5.0170    9.4032 C   0  0  0  0  0  0
   -4.2094    7.3184    9.6446 C   0  0  0  0  0  0
   -5.8031    5.9921    8.4055 C   0  0  0  0  0  0
   -4.9677    8.1706    7.6091 O   0  0  0  0  0  0
    2.3033    5.1597   12.2992 C   0  0  0  0  0  0
   -5.7784    8.0458    6.4412 C   0  0  0  0  0  0
   -5.5588    9.2819    5.5868 C   0  0  0  0  0  0
   -5.2622    4.3754   12.4791 H   0  0  0  0  0  0
  1  2  1  0  0  0
  1  3  1  0  0  0
  1  4  2  0  0  0
  1  5  2  0  0  0
  2  8  1  0  0  0
  2 22  1  0  0  0
  3  6  2  0  0  0
  3  7  1  0  0  0
  6 12  1  0  0  0
  7 13  2  0  0  0
  8 14  2  0  0  0
  8 15  1  0  0  0
  9 10  1  0  0  0
  9 12  2  0  0  0
  9 13  1  0  0  0
 10 19  1  0  0  0
 11 16  2  0  0  0
 11 17  1  0  0  0
 11 18  1  0  0  0
 14 16  1  0  0  0
 15 17  2  0  0  0
 18 20  1  0  0  0
 20 21  1  0  0  0
M  END
>  <$CLUSTER>
716

>  <CHROM.0>
171.71896851,171.50713030,73.38050365

>  <CHROM.1>
-2.96124456,4.77553039,10.13413226,0.73686044,0.13466434,2.50613957

>  <INDEX>
90607

>  <Name>
Chembridge 7916788

>  <RI>
-1.67511e+09

>  <Rbt.Current_Directory>
/aloy/home/acomajuncosa/PocketVec_v2/GitLab_repo

>  <Rbt.Executable>
rbdock ($Id: //depot/dev/client3/rdock/2021.1/src/exe/rbdock.cxx#4 $)

>  <Rbt.Library>
libRbt.so (2021.1, Build901 2021/07/19)

>  <Rbt.Parameter_File>
results/run_pocketvec/dock.prm

>  <Rbt.Receptor>
results/run_pocketvec/st_parameters.prm

>  <SCORE>
-10.1019

>  <SCORE.INTER>
-4.6401

>  <SCORE.INTER.CONST>
1

>  <SCORE.INTER.POLAR>
-1.06745

>  <SCORE.INTER.REPUL>
0

>  <SCORE.INTER.ROT>
6

>  <SCORE.INTER.VDW>
-12.4108

>  <SCORE.INTER.norm>
-0.220957

>  <SCORE.INTRA>
-4.42757e-13

>  <SCORE.INTRA.DIHEDRAL>
-3.30402e-13

>  <SCORE.INTRA.DIHEDRAL.0>
15.5061

>  <SCORE.INTRA.POLAR>
0

>  <SCORE.INTRA.POLAR.0>
0

>  <SCORE.INTRA.REPUL>
0

>  <SCORE.INTRA.REPUL.0>
0

>  <SCORE.INTRA.VDW>
-2.77556e-13

>  <SCORE.INTRA.VDW.0>
-1.35158

>  <SCORE.INTRA.norm>
-2.10837e-14

>  <SCORE.RESTR>
0

>  <SCORE.RESTR.CAVITY>
0

>  <SCORE.RESTR.norm>
0

>  <SCORE.SYSTEM>
-5.4618

>  <SCORE.SYSTEM.CONST>
0

>  <SCORE.SYSTEM.DIHEDRAL>
1.37557

>  <SCORE.SYSTEM.POLAR>
-1.74161

>  <SCORE.SYSTEM.VDW>
-0.228105

>  <SCORE.SYSTEM.norm>
-0.260086

>  <SCORE.heavy>
21

>  <SCORE.norm>
-0.481043

$$$$
Asinex ASN 03798095
  rDOCK(R)          3D
libRbt.so/2021.1/901 2021/07/19
 29 31  0  0  0  0  0  0  0  0999 V2000
    5.4946    6.2708   10.9029 S   0  0  0  0  0  0
    5.4090    5.5275    9.4053 N   0  0  0  0  0  0
    3.8779    6.0469   11.5554 C   0  0  0  0  0  0
   -1.0999    6.2644   13.1323 C   0  0  0  0  0  0
   -2.7115    4.3454   13.3294 N   0  3  0  0  0  0
    5.7075    7.6903   10.6751 O   0  0  0  0  0  0
    6.4336    5.5178   11.7142 O   0  0  0  0  0  0
    0.0425    5.4804   13.2283 N   0  0  0  0  0  0
    5.2805    4.0459    9.3711 C   0  0  0  0  0  0
    4.5734    6.1687    8.3558 C   0  0  0  0  0  0
   -2.2443    5.6567   13.9056 C   0  0  0  0  0  0
   -1.2435    7.3190   12.5237 O   0  0  0  0  0  0
    2.8858    6.9922   11.3065 C   0  0  0  0  0  0
    3.5904    4.9378   12.3458 C   0  0  0  0  0  0
    1.3067    5.7241   12.6413 C   0  0  0  0  0  0
   -3.5694    3.5780   14.2877 C   0  0  0  0  0  0
   -3.3877    4.4859   11.9872 C   0  0  0  0  0  0
    2.3134    4.7775   12.8855 C   0  0  0  0  0  0
    1.6046    6.8345   11.8463 C   0  0  0  0  0  0
    4.8655    5.6236    6.9618 C   0  0  0  0  0  0
    5.5848    3.4650    7.9933 C   0  0  0  0  0  0
   -3.9129    2.2005   13.7335 C   0  0  0  0  0  0
   -3.7200    3.1364   11.4012 C   0  0  0  0  0  0
    4.7228    4.1014    6.9011 C   0  0  0  0  0  0
   -4.5843    2.3049   12.3584 C   0  0  0  0  0  0
    5.1006    3.5673    5.5214 C   0  0  0  0  0  0
   -4.8603    0.9175   11.7793 C   0  0  0  0  0  0
   -1.8688    3.8105   13.1718 H   0  0  0  0  0  0
   -0.0382    4.6386   13.7813 H   0  0  0  0  0  0
  1  2  1  0  0  0
  1  3  1  0  0  0
  1  6  2  0  0  0
  1  7  2  0  0  0
  2  9  1  0  0  0
  2 10  1  0  0  0
  3 13  1  0  0  0
  3 14  2  0  0  0
  4  8  1  0  0  0
  4 11  1  0  0  0
  4 12  2  0  0  0
  5 11  1  0  0  0
  5 16  1  0  0  0
  5 17  1  0  0  0
  5 28  1  0  0  0
  8 15  1  0  0  0
  8 29  1  0  0  0
  9 21  1  0  0  0
 10 20  1  0  0  0
 13 19  2  0  0  0
 14 18  1  0  0  0
 15 18  2  0  0  0
 15 19  1  0  0  0
 16 22  1  0  0  0
 17 23  1  0  0  0
 20 24  1  0  0  0
 21 24  1  0  0  0
 22 25  1  0  0  0
 23 25  1  0  0  0
 24 26  1  0  0  0
 25 27  1  0  0  0
M  END
>  <$CLUSTER>
206

>  <CHROM.0>
2.41735466,171.40278445,73.66685737

>  <CHROM.1>
1.58518759,4.98048309,11.15884254,-0.20402062,0.40206004,0.92841443

>  <INDEX>
134924

>  <Name>
Asinex ASN 03798095

>  <RI>
-1.67511e+09

>  <Rbt.Current_Directory>
/aloy/home/acomajuncosa/PocketVec_v2/GitLab_repo

>  <Rbt.Executable>
rbdock ($Id: //depot/dev/client3/rdock/2021.1/src/exe/rbdock.cxx#4 $)

>  <Rbt.Library>
libRbt.so (2021.1, Build901 2021/07/19)

>  <Rbt.Parameter_File>
results/run_pocketvec/dock.prm

>  <Rbt.Receptor>
results/run_pocketvec/st_parameters.prm

>  <SCORE>
-11.1066

>  <SCORE.INTER>
-5.49826

>  <SCORE.INTER.CONST>
1

>  <SCORE.INTER.POLAR>
-0.805021

>  <SCORE.INTER.REPUL>
0

>  <SCORE.INTER.ROT>
5

>  <SCORE.INTER.VDW>
-13.1612

>  <SCORE.INTER.norm>
-0.203639

>  <SCORE.INTRA>
-1.16129e-13

>  <SCORE.INTRA.DIHEDRAL>
6.88782e-13

>  <SCORE.INTRA.DIHEDRAL.0>
3.11177

>  <SCORE.INTRA.POLAR>
0

>  <SCORE.INTRA.POLAR.0>
0

>  <SCORE.INTRA.REPUL>
0

>  <SCORE.INTRA.REPUL.0>
0

>  <SCORE.INTRA.VDW>
-4.60521e-13

>  <SCORE.INTRA.VDW.0>
-2.50783

>  <SCORE.INTRA.norm>
-4.30109e-15

>  <SCORE.RESTR>
0

>  <SCORE.RESTR.CAVITY>
0

>  <SCORE.RESTR.norm>
0

>  <SCORE.SYSTEM>
-5.60832

>  <SCORE.SYSTEM.CONST>
0

>  <SCORE.SYSTEM.DIHEDRAL>
1.3094

>  <SCORE.SYSTEM.POLAR>
-1.74397

>  <SCORE.SYSTEM.VDW>
-0.333511

>  <SCORE.SYSTEM.norm>
-0.207716

>  <SCORE.heavy>
27

>  <SCORE.norm>
-0.411355

$$$$
Life Chemicals F1895-0070
  rDOCK(R)          3D
libRbt.so/2021.1/901 2021/07/19
 33 36  0  0  0  0  0  0  0  0999 V2000
   -2.4003    7.2272   11.4630 C   0  0  0  0  0  0
   -2.1689    6.6485   12.6874 N   0  0  0  0  0  0
   -1.8809    6.9317   10.3269 N   0  0  0  0  0  0
   -1.2323    5.6070   12.7212 C   0  0  0  0  0  0
   -5.1955    4.3300   13.0221 C   0  0  0  0  0  0
   -0.6285    5.2585   11.5810 C   0  0  0  0  0  0
   -4.6311    3.1452   12.9216 N   0  0  0  0  0  0
   -0.9196    5.9576   10.3270 C   0  0  0  0  0  0
   -6.1740    4.5628   14.4059 S   0  0  0  0  0  0
   -5.0135    5.3245   12.0763 N   0  0  0  0  0  0
   -5.8256    2.9669   14.9180 C   0  0  0  0  0  0
   -4.9902    2.3663   14.0033 C   0  0  0  0  0  0
   -3.7052    8.4736   11.2815 S   0  0  0  0  0  0
   -2.8045    7.0815   13.8854 C   0  0  0  0  0  0
   -5.5607    6.6007   12.0904 C   0  0  0  0  0  0
   -0.8720    4.9262   13.8584 N   0  0  0  0  0  0
   -6.2793    2.2941   16.0756 C   0  0  0  0  0  0
   -0.3044    5.6459    9.3113 O   0  0  0  0  0  0
   -6.3049    7.1039   12.9266 O   0  0  0  0  0  0
   -4.5685    1.0273   14.2302 C   0  0  0  0  0  0
   -5.1233    7.3877   10.8792 C   0  0  0  0  0  0
   -2.5205    8.3395   14.4422 C   0  0  0  0  0  0
   -3.7369    6.2602   14.5435 C   0  0  0  0  0  0
   -5.8545    0.9791   16.2817 C   0  0  0  0  0  0
   -4.0861    7.9440   16.2407 C   0  0  0  0  0  0
   -5.0101    0.3518   15.3714 C   0  0  0  0  0  0
   -4.3746    6.6881   15.7097 C   0  0  0  0  0  0
   -3.1575    8.7685   15.6090 C   0  0  0  0  0  0
   -4.7413    8.2785   17.3527 F   0  0  0  0  0  0
   -6.3191    0.2392   17.5008 C   0  0  0  0  0  0
   -4.4186    5.0972   11.2918 H   0  0  0  0  0  0
   -0.1766    4.1951   13.8110 H   0  0  0  0  0  0
   -1.3026    5.1565   14.7420 H   0  0  0  0  0  0
  1  2  1  0  0  0
  1  3  2  0  0  0
  1 13  1  0  0  0
  2  4  1  0  0  0
  2 14  1  0  0  0
  3  8  1  0  0  0
  4  6  2  0  0  0
  4 16  1  0  0  0
  5  7  2  0  0  0
  5  9  1  0  0  0
  5 10  1  0  0  0
  6  8  1  0  0  0
  7 12  1  0  0  0
  8 18  2  0  0  0
  9 11  1  0  0  0
 10 15  1  0  0  0
 10 31  1  0  0  0
 11 12  2  0  0  0
 11 17  1  0  0  0
 12 20  1  0  0  0
 13 21  1  0  0  0
 14 22  1  0  0  0
 14 23  2  0  0  0
 15 19  2  0  0  0
 15 21  1  0  0  0
 16 32  1  0  0  0
 16 33  1  0  0  0
 17 24  2  0  0  0
 20 26  2  0  0  0
 22 28  2  0  0  0
 23 27  1  0  0  0
 24 26  1  0  0  0
 24 30  1  0  0  0
 25 27  2  0  0  0
 25 28  1  0  0  0
 25 29  1  0  0  0
M  END
>  <$CLUSTER>
462

>  <CHROM.0>
-0.27736851,172.84695493,74.03740703

>  <CHROM.1>
-3.96471133,5.43539771,13.55146889,-0.65416420,-0.96294289,-2.98397763

>  <INDEX>
302198

>  <Name>
Life Chemicals F1895-0070

>  <RI>
-1.67511e+09

>  <Rbt.Current_Directory>
/aloy/home/acomajuncosa/PocketVec_v2/GitLab_repo

>  <Rbt.Executable>
rbdock ($Id: //depot/dev/client3/rdock/2021.1/src/exe/rbdock.cxx#4 $)

>  <Rbt.Library>
libRbt.so (2021.1, Build901 2021/07/19)

>  <Rbt.Parameter_File>
results/run_pocketvec/dock.prm

>  <Rbt.Receptor>
results/run_pocketvec/st_parameters.prm

>  <SCORE>
-16.3698

>  <SCORE.INTER>
-10.7643

>  <SCORE.INTER.CONST>
1

>  <SCORE.INTER.POLAR>
-0.566975

>  <SCORE.INTER.REPUL>
0.029475

>  <SCORE.INTER.ROT>
5

>  <SCORE.INTER.VDW>
-19.3839

>  <SCORE.INTER.norm>
-0.358809

>  <SCORE.INTRA>
1.05338e-12

>  <SCORE.INTRA.DIHEDRAL>
6.75016e-13

>  <SCORE.INTRA.DIHEDRAL.0>
14.3506

>  <SCORE.INTRA.POLAR>
0

>  <SCORE.INTRA.POLAR.0>
0

>  <SCORE.INTRA.REPUL>
0

>  <SCORE.INTRA.REPUL.0>
0

>  <SCORE.INTRA.VDW>
7.15872e-13

>  <SCORE.INTRA.VDW.0>
-4.79182

>  <SCORE.INTRA.norm>
3.51127e-14

>  <SCORE.RESTR>
0.00164829

>  <SCORE.RESTR.CAVITY>
0.00164829

>  <SCORE.RESTR.norm>
5.49431e-05

>  <SCORE.SYSTEM>
-5.60718

>  <SCORE.SYSTEM.CONST>
0

>  <SCORE.SYSTEM.DIHEDRAL>
1.2441

>  <SCORE.SYSTEM.POLAR>
-1.74702

>  <SCORE.SYSTEM.VDW>
-0.289358

>  <SCORE.SYSTEM.norm>
-0.186906

>  <SCORE.heavy>
30

>  <SCORE.norm>
-0.54566

$$$$
Asinex BAS 05101595
  rDOCK(R)          3D
libRbt.so/2021.1/901 2021/07/19
 31 34  0  0  0  0  0  0  0  0999 V2000
   -3.2675    6.4257   12.8322 C   0  0  0  0  0  0
   -3.0551    7.5105   11.7938 C   0  0  0  0  0  0
   -2.3914    8.6357   12.2240 N   0  0  0  0  0  0
   -4.2123    4.1986   13.3360 N   0  0  0  0  0  0
   -2.7995    6.6437   14.0593 C   0  0  0  0  0  0
   -5.3856    4.2445   14.0946 C   0  0  0  0  0  0
   -1.9302    8.8150   13.5018 C   0  0  0  0  0  0
   -4.0049    5.2094   12.2945 C   0  0  0  0  0  0
   -2.1124    7.8631   14.4229 C   0  0  0  0  0  0
   -5.5627    3.1725   15.1416 C   0  0  0  0  0  0
   -3.1491    3.1996   13.5099 C   0  0  0  0  0  0
   -3.4544    7.3837   10.6389 O   0  0  0  0  0  0
   -6.2581    5.1065   13.9585 O   0  0  0  0  0  0
   -1.2510   10.0252   13.8478 C   0  0  0  0  0  0
   -1.6435    8.0202   15.7624 C   0  0  0  0  0  0
   -6.8562    2.8525   15.5222 C   0  0  0  0  0  0
   -4.4653    2.5334   15.7090 C   0  0  0  0  0  0
   -0.7853   10.1999   15.1494 C   0  0  0  0  0  0
   -3.3093    2.0282   12.5523 C   0  0  0  0  0  0
   -0.9792    9.2007   16.1043 C   0  0  0  0  0  0
   -7.0641    1.8645   16.4873 C   0  0  0  0  0  0
   -4.6792    1.5461   16.6741 C   0  0  0  0  0  0
   -5.9752    1.2109   17.0611 C   0  0  0  0  0  0
   -0.0762   11.4617   15.5226 C   0  0  0  0  0  0
   -6.2002    0.1508   18.0900 C   0  0  0  0  0  0
   -2.5634    1.9731   11.3685 C   0  0  0  0  0  0
   -4.2228    1.0036   12.8374 C   0  0  0  0  0  0
   -2.7102    0.8923   10.4934 C   0  0  0  0  0  0
   -4.3674   -0.0751   11.9627 C   0  0  0  0  0  0
   -3.6097   -0.1318   10.7919 C   0  0  0  0  0  0
   -2.2341    9.3764   11.5562 H   0  0  0  0  0  0
  1  2  1  0  0  0
  1  5  2  0  0  0
  1  8  1  0  0  0
  2  3  1  0  0  0
  2 12  2  0  0  0
  3  7  1  0  0  0
  3 31  1  0  0  0
  4  6  1  0  0  0
  4  8  1  0  0  0
  4 11  1  0  0  0
  5  9  1  0  0  0
  6 10  1  0  0  0
  6 13  2  0  0  0
  7  9  2  0  0  0
  7 14  1  0  0  0
  9 15  1  0  0  0
 10 16  2  0  0  0
 10 17  1  0  0  0
 11 19  1  0  0  0
 14 18  2  0  0  0
 15 20  2  0  0  0
 16 21  1  0  0  0
 17 22  2  0  0  0
 18 20  1  0  0  0
 18 24  1  0  0  0
 19 26  2  0  0  0
 19 27  1  0  0  0
 21 23  2  0  0  0
 22 23  1  0  0  0
 23 25  1  0  0  0
 26 28  1  0  0  0
 27 29  2  0  0  0
 28 30  2  0  0  0
 29 30  1  0  0  0
M  END
>  <$CLUSTER>
222

>  <CHROM.0>
-0.29899662,173.68046913,73.94099234

>  <CHROM.1>
-3.62291024,4.80018876,13.90962682,-0.59373864,-1.07350398,-2.25541436

>  <INDEX>
181503

>  <Name>
Asinex BAS 05101595

>  <RI>
-1.67511e+09

>  <Rbt.Current_Directory>
/aloy/home/acomajuncosa/PocketVec_v2/GitLab_repo

>  <Rbt.Executable>
rbdock ($Id: //depot/dev/client3/rdock/2021.1/src/exe/rbdock.cxx#4 $)

>  <Rbt.Library>
libRbt.so (2021.1, Build901 2021/07/19)

>  <Rbt.Parameter_File>
results/run_pocketvec/dock.prm

>  <Rbt.Receptor>
results/run_pocketvec/st_parameters.prm

>  <SCORE>
-16.042

>  <SCORE.INTER>
-10.4428

>  <SCORE.INTER.CONST>
1

>  <SCORE.INTER.POLAR>
0

>  <SCORE.INTER.REPUL>
0

>  <SCORE.INTER.ROT>
5

>  <SCORE.INTER.VDW>
-20.8428

>  <SCORE.INTER.norm>
-0.348094

>  <SCORE.INTRA>
1.72506e-12

>  <SCORE.INTRA.DIHEDRAL>
6.37712e-13

>  <SCORE.INTRA.DIHEDRAL.0>
6.24868

>  <SCORE.INTRA.POLAR>
0

>  <SCORE.INTRA.POLAR.0>
0

>  <SCORE.INTRA.REPUL>
0

>  <SCORE.INTRA.REPUL.0>
0

>  <SCORE.INTRA.VDW>
1.40621e-12

>  <SCORE.INTRA.VDW.0>
1.231

>  <SCORE.INTRA.norm>
5.75022e-14

>  <SCORE.RESTR>
0

>  <SCORE.RESTR.CAVITY>
0

>  <SCORE.RESTR.norm>
0

>  <SCORE.SYSTEM>
-5.59923

>  <SCORE.SYSTEM.CONST>
0

>  <SCORE.SYSTEM.DIHEDRAL>
1.17855

>  <SCORE.SYSTEM.POLAR>
-1.74623

>  <SCORE.SYSTEM.VDW>
-0.251328

>  <SCORE.SYSTEM.norm>
-0.186641

>  <SCORE.heavy>
30

>  <SCORE.norm>
-0.534735

$$$$
InterBioScreen STOCK4S-15128
  rDOCK(R)          3D
libRbt.so/2021.1/901 2021/07/19
 32 35  0  0  0  0  0  0  0  0999 V2000
   -4.2956    2.0889   14.6618 C   0  0  0  0  0  0
   -4.1211    1.1721   13.6361 C   0  0  0  0  0  0
   -3.3100    3.6506   13.1758 N   0  0  0  0  0  0
   -3.1987    2.6352   12.2378 C   0  0  0  0  0  0
   -3.5773    1.4078   12.4082 N   0  0  0  0  0  0
   -3.8567    3.4613   14.4435 C   0  0  0  0  0  0
   -4.9015    1.5014   15.8124 C   0  0  0  0  0  0
   -4.6794   -0.3829   14.0760 S   0  0  0  0  0  0
   -5.1451    0.1575   15.6183 C   0  0  0  0  0  0
   -2.6932    2.9719   10.5643 S   0  0  0  0  0  0
   -2.6991    4.9856   12.9042 C   0  0  0  0  0  0
   -5.2409    2.1480   17.1174 C   0  0  0  0  0  0
   -5.7718   -0.1103   17.9087 O   0  0  0  0  0  0
   -3.9561    4.3491   15.2838 O   0  0  0  0  0  0
   -6.2086    1.2648   17.9474 C   0  0  0  0  0  0
   -5.7869   -0.7424   16.6170 C   0  0  0  0  0  0
   -2.7898    0.2427   10.2014 C   0  0  0  0  0  0
   -3.6397    0.0476    9.3343 O   0  0  0  0  0  0
   -1.8327    1.4272   10.1909 C   0  0  0  0  0  0
   -1.3653    5.1356   12.4915 C   0  0  0  0  0  0
   -3.4692    6.1375   13.1281 C   0  0  0  0  0  0
   -2.6512   -0.5853   11.2696 N   0  0  0  0  0  0
   -1.6110    7.5407   12.4827 C   0  0  0  0  0  0
   -0.8277    6.4068   12.2771 C   0  0  0  0  0  0
   -2.9286    7.4064   12.9103 C   0  0  0  0  0  0
   -1.1935    8.8403   12.3136 O   0  0  0  0  0  0
   -7.6660    1.4036   17.4782 C   0  0  0  0  0  0
   -6.1330    1.6857   19.4224 C   0  0  0  0  0  0
    0.1524    9.0412   11.8798 C   0  0  0  0  0  0
    0.3846   10.5359   11.7586 C   0  0  0  0  0  0
   -3.2557   -1.3883   11.3679 H   0  0  0  0  0  0
   -1.9432   -0.3978   11.9648 H   0  0  0  0  0  0
  1  2  2  0  0  0
  1  6  1  0  0  0
  1  7  1  0  0  0
  2  5  1  0  0  0
  2  8  1  0  0  0
  3  4  1  0  0  0
  3  6  1  0  0  0
  3 11  1  0  0  0
  4  5  2  0  0  0
  4 10  1  0  0  0
  6 14  2  0  0  0
  7  9  2  0  0  0
  7 12  1  0  0  0
  8  9  1  0  0  0
  9 16  1  0  0  0
 10 19  1  0  0  0
 11 20  2  0  0  0
 11 21  1  0  0  0
 12 15  1  0  0  0
 13 15  1  0  0  0
 13 16  1  0  0  0
 15 27  1  0  0  0
 15 28  1  0  0  0
 17 18  2  0  0  0
 17 19  1  0  0  0
 17 22  1  0  0  0
 20 24  1  0  0  0
 21 25  2  0  0  0
 22 31  1  0  0  0
 22 32  1  0  0  0
 23 24  2  0  0  0
 23 25  1  0  0  0
 23 26  1  0  0  0
 26 29  1  0  0  0
 29 30  1  0  0  0
M  END
>  <$CLUSTER>
515

>  <CHROM.0>
2.95604865,172.84271429,167.88883334

>  <CHROM.1>
-3.51543986,3.03615717,13.60963658,2.80447302,-1.04717426,-2.51880530

>  <INDEX>
350677

>  <Name>
InterBioScreen STOCK4S-15128

>  <RI>
-1.67511e+09

>  <Rbt.Current_Directory>
/aloy/home/acomajuncosa/PocketVec_v2/GitLab_repo

>  <Rbt.Executable>
rbdock ($Id: //depot/dev/client3/rdock/2021.1/src/exe/rbdock.cxx#4 $)

>  <Rbt.Library>
libRbt.so (2021.1, Build901 2021/07/19)

>  <Rbt.Parameter_File>
results/run_pocketvec/dock.prm

>  <Rbt.Receptor>
results/run_pocketvec/st_parameters.prm

>  <SCORE>
-14.0491

>  <SCORE.INTER>
-11.5808

>  <SCORE.INTER.CONST>
1

>  <SCORE.INTER.POLAR>
-1.59764

>  <SCORE.INTER.REPUL>
0.050032

>  <SCORE.INTER.ROT>
6

>  <SCORE.INTER.VDW>
-17.799

>  <SCORE.INTER.norm>
-0.386028

>  <SCORE.INTRA>
-4.16683e-12

>  <SCORE.INTRA.DIHEDRAL>
-9.13047e-13

>  <SCORE.INTRA.DIHEDRAL.0>
10.9592

>  <SCORE.INTRA.POLAR>
0

>  <SCORE.INTRA.POLAR.0>
0

>  <SCORE.INTRA.REPUL>
0

>  <SCORE.INTRA.REPUL.0>
0

>  <SCORE.INTRA.VDW>
-3.71031e-12

>  <SCORE.INTRA.VDW.0>
0.0868125

>  <SCORE.INTRA.norm>
-1.38894e-13

>  <SCORE.RESTR>
0

>  <SCORE.RESTR.CAVITY>
0

>  <SCORE.RESTR.norm>
0

>  <SCORE.SYSTEM>
-2.46827

>  <SCORE.SYSTEM.CONST>
0

>  <SCORE.SYSTEM.DIHEDRAL>
1.02347

>  <SCORE.SYSTEM.POLAR>
-0.994987

>  <SCORE.SYSTEM.VDW>
0.402954

>  <SCORE.SYSTEM.norm>
-0.0822756

>  <SCORE.heavy>
30

>  <SCORE.norm>
-0.468304

$$$$
Asinex ASN 05588575
  rDOCK(R)          3D
libRbt.so/2021.1/901 2021/07/19
 31 34  0  0  0  0  0  0  0  0999 V2000
   -3.1113    2.0417   10.3510 N   0  0  0  0  0  0
   -1.7923    5.3167   13.4738 C   0  0  0  0  0  0
   -2.2244    4.7645   12.2531 C   0  0  0  0  0  0
   -3.1103    3.7414   12.1958 N   0  0  0  0  0  0
   -5.2278    0.3038   11.1874 N   0  0  0  0  0  0
   -2.8391    0.7167   10.8346 C   0  0  0  0  0  0
   -2.1468    2.8475    9.7236 C   0  0  0  0  0  0
   -5.6090    1.5569   10.8215 C   0  0  0  0  0  0
   -3.8989   -0.1182   11.2392 C   0  0  0  0  0  0
   -0.8559    6.3982   13.5435 C   0  0  0  0  0  0
   -4.4856    2.5460   10.5448 C   0  0  0  0  0  0
   -3.2161    3.7308   14.6091 C   0  0  0  0  0  0
   -3.5861    3.2478   13.3640 C   0  0  0  0  0  0
   -2.3048    4.7821   14.6627 C   0  0  0  0  0  0
   -0.0960    7.2757   13.6290 N   0  0  0  0  0  0
   -1.6100    5.3968   10.6644 S   0  0  0  0  0  0
   -2.5132    4.3062    9.5205 C   0  0  0  0  0  0
   -3.7409    3.1798   15.7920 C   0  0  0  0  0  0
   -6.7929    1.8929   10.7994 O   0  0  0  0  0  0
   -1.0527    2.4638    9.3120 O   0  0  0  0  0  0
   -4.5123    2.1800   13.3144 C   0  0  0  0  0  0
   -4.6528    2.1273   15.7242 C   0  0  0  0  0  0
   -5.0382    1.6269   14.4841 C   0  0  0  0  0  0
   -1.5364    0.2026   10.9452 C   0  0  0  0  0  0
   -5.0930    1.6756   16.9407 O   0  0  0  0  0  0
   -3.6632   -1.4213   11.6978 C   0  0  0  0  0  0
   -6.0283    0.5976   16.9314 C   0  0  0  0  0  0
   -1.3008   -1.0947   11.4101 C   0  0  0  0  0  0
   -2.3639   -1.9093   11.7809 C   0  0  0  0  0  0
   -6.3726    0.2653   18.3734 C   0  0  0  0  0  0
   -5.9481   -0.3589   11.4362 H   0  0  0  0  0  0
  1  6  1  0  0  0
  1  7  1  0  0  0
  1 11  1  0  0  0
  2  3  1  0  0  0
  2 10  1  0  0  0
  2 14  2  0  0  0
  3  4  2  0  0  0
  3 16  1  0  0  0
  4 13  1  0  0  0
  5  8  1  0  0  0
  5  9  1  0  0  0
  5 31  1  0  0  0
  6  9  2  0  0  0
  6 24  1  0  0  0
  7 17  1  0  0  0
  7 20  2  0  0  0
  8 11  1  0  0  0
  8 19  2  0  0  0
  9 26  1  0  0  0
 10 15  3  0  0  0
 12 13  2  0  0  0
 12 14  1  0  0  0
 12 18  1  0  0  0
 13 21  1  0  0  0
 16 17  1  0  0  0
 18 22  2  0  0  0
 21 23  2  0  0  0
 22 23  1  0  0  0
 22 25  1  0  0  0
 24 28  2  0  0  0
 25 27  1  0  0  0
 26 29  2  0  0  0
 27 30  1  0  0  0
 28 29  1  0  0  0
M  END
>  <$CLUSTER>
232

>  <CHROM.0>
-0.23578772,171.43260990,74.05828307

>  <CHROM.1>
-3.33003783,2.46245368,12.58957231,0.22842913,-1.00225423,-2.21945906

>  <INDEX>
149658

>  <Name>
Asinex ASN 05588575

>  <RI>
-1.67511e+09

>  <Rbt.Current_Directory>
/aloy/home/acomajuncosa/PocketVec_v2/GitLab_repo

>  <Rbt.Executable>
rbdock ($Id: //depot/dev/client3/rdock/2021.1/src/exe/rbdock.cxx#4 $)

>  <Rbt.Library>
libRbt.so (2021.1, Build901 2021/07/19)

>  <Rbt.Parameter_File>
results/run_pocketvec/dock.prm

>  <Rbt.Receptor>
results/run_pocketvec/st_parameters.prm

>  <SCORE>
-11.435

>  <SCORE.INTER>
-5.82512

>  <SCORE.INTER.CONST>
1

>  <SCORE.INTER.POLAR>
-0.344492

>  <SCORE.INTER.REPUL>
0

>  <SCORE.INTER.ROT>
5

>  <SCORE.INTER.VDW>
-15.0538

>  <SCORE.INTER.norm>
-0.194171

>  <SCORE.INTRA>
9.45954e-12

>  <SCORE.INTRA.DIHEDRAL>
-1.82077e-13

>  <SCORE.INTRA.DIHEDRAL.0>
3.35762

>  <SCORE.INTRA.POLAR>
0

>  <SCORE.INTRA.POLAR.0>
0

>  <SCORE.INTRA.REPUL>
0

>  <SCORE.INTRA.REPUL.0>
0

>  <SCORE.INTRA.VDW>
9.55058e-12

>  <SCORE.INTRA.VDW.0>
5.77713

>  <SCORE.INTRA.norm>
3.15318e-13

>  <SCORE.RESTR>
0

>  <SCORE.RESTR.CAVITY>
0

>  <SCORE.RESTR.norm>
0

>  <SCORE.SYSTEM>
-5.60991

>  <SCORE.SYSTEM.CONST>
0

>  <SCORE.SYSTEM.DIHEDRAL>
1.3518

>  <SCORE.SYSTEM.POLAR>
-1.74719

>  <SCORE.SYSTEM.VDW>
-0.345362

>  <SCORE.SYSTEM.norm>
-0.186997

>  <SCORE.heavy>
30

>  <SCORE.norm>
-0.381168

$$$$
Biofocus 170_4347_0164
  rDOCK(R)          3D
libRbt.so/2021.1/901 2021/07/19
 24 26  0  0  0  0  0  0  0  0999 V2000
   -4.4562    0.9859   13.1536 N   0  0  0  0  0  0
   -4.7022   -0.1726   12.3715 C   0  0  0  0  0  0
   -4.4545    2.1108   12.3122 C   0  0  0  0  0  0
   -4.8447    0.2896   11.0364 N   0  0  0  0  0  0
   -4.6918    1.6781   11.0195 C   0  0  0  0  0  0
   -4.2668    3.3973   12.6311 N   0  0  0  0  0  0
   -4.7562    2.4973    9.9647 N   0  0  0  0  0  0
   -4.3293    4.2393   11.5744 C   0  0  0  0  0  0
   -4.1204    5.7061   11.9057 C   0  0  0  0  0  0
   -4.5187    8.0843   11.4923 C   0  0  0  0  0  0
   -4.7331    6.7413   11.1689 C   0  0  0  0  0  0
   -4.7807   -1.3316   12.7517 O   0  0  0  0  0  0
   -4.5673    3.8009   10.2752 C   0  0  0  0  0  0
   -3.6941    8.4247   12.5595 C   0  0  0  0  0  0
   -3.2969    6.0802   12.9872 C   0  0  0  0  0  0
   -4.2499    1.0407   14.5828 C   0  0  0  0  0  0
   -3.0835    7.4219   13.3101 C   0  0  0  0  0  0
   -5.2662    9.3165   10.5828 Cl  0  0  0  0  0  0
   -3.5412    9.7278   12.7981 F   0  0  0  0  0  0
   -5.5312    1.3759   15.3272 C   0  0  0  0  0  0
   -6.5546    1.7642   17.4537 O   0  0  0  0  0  0
   -5.3213    1.4470   16.8273 C   0  0  0  0  0  0
   -6.4294    1.8462   18.8646 C   0  0  0  0  0  0
   -5.0269   -0.2912   10.2301 H   0  0  0  0  0  0
  1  2  1  0  0  0
  1  3  1  0  0  0
  1 16  1  0  0  0
  2  4  1  0  0  0
  2 12  2  0  0  0
  3  5  2  0  0  0
  3  6  1  0  0  0
  4  5  1  0  0  0
  4 24  1  0  0  0
  5  7  1  0  0  0
  6  8  2  0  0  0
  7 13  2  0  0  0
  8  9  1  0  0  0
  8 13  1  0  0  0
  9 11  2  0  0  0
  9 15  1  0  0  0
 10 11  1  0  0  0
 10 14  2  0  0  0
 10 18  1  0  0  0
 14 17  1  0  0  0
 14 19  1  0  0  0
 15 17  2  0  0  0
 16 20  1  0  0  0
 20 22  1  0  0  0
 21 22  1  0  0  0
 21 23  1  0  0  0
M  END
>  <$CLUSTER>
28

>  <CHROM.0>
178.79361358,171.58129641,73.75376310

>  <CHROM.1>
-4.68052547,4.09297377,12.85129986,-2.27899691,1.40843947,0.33129435

>  <INDEX>
15736

>  <Name>
Biofocus 170_4347_0164

>  <RI>
-1.67511e+09

>  <Rbt.Current_Directory>
/aloy/home/acomajuncosa/PocketVec_v2/GitLab_repo

>  <Rbt.Executable>
rbdock ($Id: //depot/dev/client3/rdock/2021.1/src/exe/rbdock.cxx#4 $)

>  <Rbt.Library>
libRbt.so (2021.1, Build901 2021/07/19)

>  <Rbt.Parameter_File>
results/run_pocketvec/dock.prm

>  <Rbt.Receptor>
results/run_pocketvec/st_parameters.prm

>  <SCORE>
-13.8088

>  <SCORE.INTER>
-8.35281

>  <SCORE.INTER.CONST>
1

>  <SCORE.INTER.POLAR>
-0.840028

>  <SCORE.INTER.REPUL>
0.000106446

>  <SCORE.INTER.ROT>
5

>  <SCORE.INTER.VDW>
-15.8972

>  <SCORE.INTER.norm>
-0.363165

>  <SCORE.INTRA>
6.39044e-13

>  <SCORE.INTRA.DIHEDRAL>
-7.67386e-13

>  <SCORE.INTRA.DIHEDRAL.0>
3.6751

>  <SCORE.INTRA.POLAR>
0

>  <SCORE.INTRA.POLAR.0>
0

>  <SCORE.INTRA.REPUL>
0

>  <SCORE.INTRA.REPUL.0>
0

>  <SCORE.INTRA.VDW>
1.02274e-12

>  <SCORE.INTRA.VDW.0>
-1.15529

>  <SCORE.INTRA.norm>
2.77845e-14

>  <SCORE.RESTR>
0

>  <SCORE.RESTR.CAVITY>
0

>  <SCORE.RESTR.norm>
0

>  <SCORE.SYSTEM>
-5.45599

>  <SCORE.SYSTEM.CONST>
0

>  <SCORE.SYSTEM.DIHEDRAL>
1.3057

>  <SCORE.SYSTEM.POLAR>
-1.74469

>  <SCORE.SYSTEM.VDW>
-0.176895

>  <SCORE.SYSTEM.norm>
-0.237217

>  <SCORE.heavy>
23

>  <SCORE.norm>
-0.600382

$$$$
InterBioScreen STOCK5S-06824
  rDOCK(R)          3D
libRbt.so/2021.1/901 2021/07/19
 25 27  0  0  0  0  0  0  0  0999 V2000
   -3.4410    2.5796   10.2774 N   0  0  0  0  0  0
   -4.3981    1.6978   10.7283 C   0  0  0  0  0  0
   -5.6136    2.2477   10.8913 N   0  0  0  0  0  0
   -4.1195    3.6928   10.1699 C   0  0  0  0  0  0
   -5.4236    3.5787   10.5177 O   0  0  0  0  0  0
   -4.0804    0.3016   10.9932 C   0  0  0  0  0  0
   -3.3963    6.6015    7.7585 C   0  0  0  0  0  0
   -3.5930    6.7767    6.4099 N   0  0  0  0  0  0
   -3.3001    7.8800    5.5825 C   0  0  0  0  0  0
   -2.9006    7.4401    8.4959 O   0  0  0  0  0  0
   -2.7778   -0.1819   10.7939 C   0  0  0  0  0  0
   -5.0647   -0.5860   11.4524 C   0  0  0  0  0  0
   -3.6539    5.0284    9.7253 C   0  0  0  0  0  0
   -3.8726    5.2253    8.2343 C   0  0  0  0  0  0
   -2.7167    9.0562    6.0629 C   0  0  0  0  0  0
   -3.4563   -2.3921   11.5030 C   0  0  0  0  0  0
   -2.4702   -1.5207   11.0468 C   0  0  0  0  0  0
   -4.7530   -1.9255   11.7052 C   0  0  0  0  0  0
   -3.0640   -4.0194   11.8079 Cl  0  0  0  0  0  0
   -2.4485   10.1182    5.1914 C   0  0  0  0  0  0
   -3.3437    8.8493    3.3505 C   0  0  0  0  0  0
   -3.6111    7.7875    4.2174 C   0  0  0  0  0  0
   -2.7625   10.0154    3.8391 C   0  0  0  0  0  0
   -1.8226   11.3718    5.7175 C   0  0  0  0  0  0
   -4.0148    5.9906    5.9361 H   0  0  0  0  0  0
  1  2  1  0  0  0
  1  4  2  0  0  0
  2  3  2  0  0  0
  2  6  1  0  0  0
  3  5  1  0  0  0
  4  5  1  0  0  0
  4 13  1  0  0  0
  6 11  2  0  0  0
  6 12  1  0  0  0
  7  8  1  0  0  0
  7 10  2  0  0  0
  7 14  1  0  0  0
  8  9  1  0  0  0
  8 25  1  0  0  0
  9 15  2  0  0  0
  9 22  1  0  0  0
 11 17  1  0  0  0
 12 18  2  0  0  0
 13 14  1  0  0  0
 15 20  1  0  0  0
 16 17  2  0  0  0
 16 18  1  0  0  0
 16 19  1  0  0  0
 20 23  2  0  0  0
 20 24  1  0  0  0
 21 22  2  0  0  0
 21 23  1  0  0  0
M  END
>  <$CLUSTER>
559

>  <CHROM.0>
-1.20201875,173.52536366,73.73749363

>  <CHROM.1>
-3.55962126,3.69312441,8.80654219,1.69660786,-1.05419071,2.74188593

>  <INDEX>
365293

>  <Name>
InterBioScreen STOCK5S-06824

>  <RI>
-1.67511e+09

>  <Rbt.Current_Directory>
/aloy/home/acomajuncosa/PocketVec_v2/GitLab_repo

>  <Rbt.Executable>
rbdock ($Id: //depot/dev/client3/rdock/2021.1/src/exe/rbdock.cxx#4 $)

>  <Rbt.Library>
libRbt.so (2021.1, Build901 2021/07/19)

>  <Rbt.Parameter_File>
results/run_pocketvec/dock.prm

>  <Rbt.Receptor>
results/run_pocketvec/st_parameters.prm

>  <SCORE>
-13.8485

>  <SCORE.INTER>
-8.25031

>  <SCORE.INTER.CONST>
1

>  <SCORE.INTER.POLAR>
-0.962703

>  <SCORE.INTER.REPUL>
0

>  <SCORE.INTER.ROT>
5

>  <SCORE.INTER.VDW>
-15.3771

>  <SCORE.INTER.norm>
-0.343763

>  <SCORE.INTRA>
1.98352e-12

>  <SCORE.INTRA.DIHEDRAL>
2.90434e-13

>  <SCORE.INTRA.DIHEDRAL.0>
2.44062

>  <SCORE.INTRA.POLAR>
0

>  <SCORE.INTRA.POLAR.0>
0

>  <SCORE.INTRA.REPUL>
0

>  <SCORE.INTRA.REPUL.0>
0

>  <SCORE.INTRA.VDW>
1.83831e-12

>  <SCORE.INTRA.VDW.0>
-0.692062

>  <SCORE.INTRA.norm>
8.26469e-14

>  <SCORE.RESTR>
0

>  <SCORE.RESTR.CAVITY>
0

>  <SCORE.RESTR.norm>
0

>  <SCORE.SYSTEM>
-5.5982

>  <SCORE.SYSTEM.CONST>
0

>  <SCORE.SYSTEM.DIHEDRAL>
1.16633

>  <SCORE.SYSTEM.POLAR>
-1.74456

>  <SCORE.SYSTEM.VDW>
-0.249874

>  <SCORE.SYSTEM.norm>
-0.233258

>  <SCORE.heavy>
24

>  <SCORE.norm>
-0.577021

$$$$
Biofocus 119_0552_0135
  rDOCK(R)          3D
libRbt.so/2021.1/901 2021/07/19
 31 34  0  0  0  0  0  0  0  0999 V2000
   -3.0032    5.8212   10.1771 N   0  0  0  0  0  0
   -1.7818    5.8168    9.5388 C   0  0  0  0  0  0
   -3.4323    5.4193   11.4331 C   0  0  0  0  0  0
   -3.9107    6.3538    9.2978 C   0  0  0  0  0  0
   -4.7388    5.5653   11.7541 C   0  0  0  0  0  0
   -3.3766    6.6916    8.1518 N   0  0  0  0  0  0
   -5.6854    6.1036   10.8805 N   0  0  0  0  0  0
   -0.6347    5.3423   10.1422 N   0  0  0  0  0  0
   -2.0482    6.3592    8.2936 C   0  0  0  0  0  0
    0.5977    5.3353    9.5052 C   0  0  0  0  0  0
   -5.2811    6.4815    9.6993 C   0  0  0  0  0  0
   -5.2477    5.1425   13.1018 C   0  0  0  0  0  0
   -5.0840    3.8239   13.5169 C   0  0  0  0  0  0
   -5.5475    3.4382   14.7766 C   0  0  0  0  0  0
   -5.3921    2.0789   15.2116 N   0  0  0  0  0  0
    0.8552    5.7248    8.3701 O   0  0  0  0  0  0
    1.6724    4.7655   10.3953 C   0  0  0  0  0  0
    3.0500    4.7286    9.7526 C   0  0  0  0  0  0
    3.8972    5.8342    9.8497 C   0  0  0  0  0  0
    5.1430    5.8175    9.2216 C   0  0  0  0  0  0
    6.0695    6.8399    9.2607 O   0  0  0  0  0  0
   -5.8544    6.0776   13.9268 C   0  0  0  0  0  0
   -6.1631    4.3701   15.6111 C   0  0  0  0  0  0
   -6.3169    5.6883   15.1868 C   0  0  0  0  0  0
    4.6840    3.6098    8.3645 C   0  0  0  0  0  0
   -5.8418    1.5701   16.5082 C   0  0  0  0  0  0
   -4.7463    1.1007   14.3347 C   0  0  0  0  0  0
    3.4371    3.6246    8.9917 C   0  0  0  0  0  0
    5.5359    4.7054    8.4806 C   0  0  0  0  0  0
    5.7207    7.9997   10.0072 C   0  0  0  0  0  0
   -0.6950    4.9854   11.0851 H   0  0  0  0  0  0
  1  2  1  0  0  0
  1  3  1  0  0  0
  1  4  1  0  0  0
  2  8  1  0  0  0
  2  9  2  0  0  0
  3  5  2  0  0  0
  4  6  2  0  0  0
  4 11  1  0  0  0
  5  7  1  0  0  0
  5 12  1  0  0  0
  6  9  1  0  0  0
  7 11  2  0  0  0
  8 10  1  0  0  0
  8 31  1  0  0  0
 10 16  2  0  0  0
 10 17  1  0  0  0
 12 13  2  0  0  0
 12 22  1  0  0  0
 13 14  1  0  0  0
 14 15  1  0  0  0
 14 23  2  0  0  0
 15 26  1  0  0  0
 15 27  1  0  0  0
 17 18  1  0  0  0
 18 19  2  0  0  0
 18 28  1  0  0  0
 19 20  1  0  0  0
 20 21  1  0  0  0
 20 29  2  0  0  0
 21 30  1  0  0  0
 22 24  2  0  0  0
 23 24  1  0  0  0
 25 28  2  0  0  0
 25 29  1  0  0  0
M  END
>  <$CLUSTER>
22

>  <CHROM.0>
4.50888887,173.23185834,73.80865437

>  <CHROM.1>
-1.39203603,5.06603293,11.12858927,2.68825972,-0.16648995,2.21269001

>  <INDEX>
10269

>  <Name>
Biofocus 119_0552_0135

>  <RI>
-1.67511e+09

>  <Rbt.Current_Directory>
/aloy/home/acomajuncosa/PocketVec_v2/GitLab_repo

>  <Rbt.Executable>
rbdock ($Id: //depot/dev/client3/rdock/2021.1/src/exe/rbdock.cxx#4 $)

>  <Rbt.Library>
libRbt.so (2021.1, Build901 2021/07/19)

>  <Rbt.Parameter_File>
results/run_pocketvec/dock.prm

>  <Rbt.Receptor>
results/run_pocketvec/st_parameters.prm

>  <SCORE>
-8.54616

>  <SCORE.INTER>
-2.94647

>  <SCORE.INTER.CONST>
1

>  <SCORE.INTER.POLAR>
-0.489411

>  <SCORE.INTER.REPUL>
0

>  <SCORE.INTER.ROT>
6

>  <SCORE.INTER.VDW>
-12.6825

>  <SCORE.INTER.norm>
-0.0982156

>  <SCORE.INTRA>
-2.44915e-12

>  <SCORE.INTRA.DIHEDRAL>
-2.3892e-13

>  <SCORE.INTRA.DIHEDRAL.0>
5.6236

>  <SCORE.INTRA.POLAR>
0

>  <SCORE.INTRA.POLAR.0>
0

>  <SCORE.INTRA.REPUL>
0

>  <SCORE.INTRA.REPUL.0>
0

>  <SCORE.INTRA.VDW>
-2.32969e-12

>  <SCORE.INTRA.VDW.0>
3.0899

>  <SCORE.INTRA.norm>
-8.16384e-14

>  <SCORE.RESTR>
0

>  <SCORE.RESTR.CAVITY>
0

>  <SCORE.RESTR.norm>
0

>  <SCORE.SYSTEM>
-5.59969

>  <SCORE.SYSTEM.CONST>
0

>  <SCORE.SYSTEM.DIHEDRAL>
1.21129

>  <SCORE.SYSTEM.POLAR>
-1.74514

>  <SCORE.SYSTEM.VDW>
-0.271855

>  <SCORE.SYSTEM.norm>
-0.186656

>  <SCORE.heavy>
30

>  <SCORE.norm>
-0.284872

$$$$
Cerep CER0099275
  rDOCK(R)          3D
libRbt.so/2021.1/901 2021/07/19
 30 33  0  0  0  0  0  0  0  0999 V2000
   -3.6181   -1.7101   11.3994 C   0  0  0  0  0  0
   -3.4107   -3.1719   11.6687 C   0  0  0  0  0  0
   -4.1333    2.4820   10.6476 C   0  0  0  0  0  0
   -3.0610    3.1885   10.1482 N   0  0  0  0  0  0
   -2.5224   -0.8482   11.4257 C   0  0  0  0  0  0
   -3.9230    1.0389   10.9057 C   0  0  0  0  0  0
   -2.6618    0.5147   11.1829 C   0  0  0  0  0  0
   -1.3480    4.4285    8.1205 N   0  3  0  0  0  0
   -4.8852   -1.1708   11.1186 C   0  0  0  0  0  0
    2.8651    5.4467    6.7360 C   0  0  0  0  0  0
    3.3752    4.2125    6.3399 C   0  0  0  0  0  0
    3.8287    6.3511    6.9605 O   0  0  0  0  0  0
    4.7132    4.2082    6.2823 O   0  0  0  0  0  0
   -5.0336    0.1965   10.8734 C   0  0  0  0  0  0
    5.0111    5.5679    6.6739 C   0  0  0  0  0  0
   -5.2286    2.9930   10.8633 O   0  0  0  0  0  0
    1.4864    5.6275    6.8571 C   0  0  0  0  0  0
   -3.1799    4.6236    9.8600 C   0  0  0  0  0  0
   -1.7279    2.6286    9.8652 C   0  0  0  0  0  0
    0.6128    4.5753    6.5678 C   0  0  0  0  0  0
   -0.8876    4.7599    6.7348 C   0  0  0  0  0  0
   -2.5601   -3.7635   10.7779 F   0  0  0  0  0  0
   -2.8842   -3.4182   12.9045 F   0  0  0  0  0  0
   -4.5611   -3.9076   11.6135 F   0  0  0  0  0  0
    2.5092    3.1559    6.0696 C   0  0  0  0  0  0
   -2.7391    4.9637    8.4084 C   0  0  0  0  0  0
   -1.2667    2.9405    8.4134 C   0  0  0  0  0  0
   -1.3002   -1.3327   11.6902 F   0  0  0  0  0  0
    1.1298    3.3327    6.1905 C   0  0  0  0  0  0
   -0.7079    4.8961    8.7465 H   0  0  0  0  0  0
  1  2  1  0  0  0
  1  5  1  0  0  0
  1  9  2  0  0  0
  2 22  1  0  0  0
  2 23  1  0  0  0
  2 24  1  0  0  0
  3  4  1  0  0  0
  3  6  1  0  0  0
  3 16  2  0  0  0
  4 18  1  0  0  0
  4 19  1  0  0  0
  5  7  2  0  0  0
  5 28  1  0  0  0
  6  7  1  0  0  0
  6 14  2  0  0  0
  8 21  1  0  0  0
  8 26  1  0  0  0
  8 27  1  0  0  0
  8 30  1  0  0  0
  9 14  1  0  0  0
 10 11  1  0  0  0
 10 12  1  0  0  0
 10 17  2  0  0  0
 11 13  1  0  0  0
 11 25  2  0  0  0
 12 15  1  0  0  0
 13 15  1  0  0  0
 17 20  1  0  0  0
 18 26  1  0  0  0
 19 27  1  0  0  0
 20 21  1  0  0  0
 20 29  2  0  0  0
 25 29  1  0  0  0
M  END
>  <$CLUSTER>
583

>  <CHROM.0>
3.11845241,172.13378435,73.86113195

>  <CHROM.1>
-1.25836617,1.81373464,9.31913935,-2.25722062,0.36160942,-0.33306293

>  <INDEX>
187005

>  <Name>
Cerep CER0099275

>  <RI>
-1.67511e+09

>  <Rbt.Current_Directory>
/aloy/home/acomajuncosa/PocketVec_v2/GitLab_repo

>  <Rbt.Executable>
rbdock ($Id: //depot/dev/client3/rdock/2021.1/src/exe/rbdock.cxx#4 $)

>  <Rbt.Library>
libRbt.so (2021.1, Build901 2021/07/19)

>  <Rbt.Parameter_File>
results/run_pocketvec/dock.prm

>  <Rbt.Receptor>
results/run_pocketvec/st_parameters.prm

>  <SCORE>
-16.4256

>  <SCORE.INTER>
-10.8167

>  <SCORE.INTER.CONST>
1

>  <SCORE.INTER.POLAR>
-0.497495

>  <SCORE.INTER.REPUL>
0

>  <SCORE.INTER.ROT>
4

>  <SCORE.INTER.VDW>
-18.5252

>  <SCORE.INTER.norm>
-0.37299

>  <SCORE.INTRA>
1.24034e-12

>  <SCORE.INTRA.DIHEDRAL>
1.12799e-13

>  <SCORE.INTRA.DIHEDRAL.0>
4.29089

>  <SCORE.INTRA.POLAR>
0

>  <SCORE.INTRA.POLAR.0>
0

>  <SCORE.INTRA.REPUL>
0

>  <SCORE.INTRA.REPUL.0>
0

>  <SCORE.INTRA.VDW>
1.18394e-12

>  <SCORE.INTRA.VDW.0>
2.05709

>  <SCORE.INTRA.norm>
4.27704e-14

>  <SCORE.RESTR>
0

>  <SCORE.RESTR.CAVITY>
0

>  <SCORE.RESTR.norm>
0

>  <SCORE.SYSTEM>
-5.60892

>  <SCORE.SYSTEM.CONST>
0

>  <SCORE.SYSTEM.DIHEDRAL>
1.28106

>  <SCORE.SYSTEM.POLAR>
-1.74557

>  <SCORE.SYSTEM.VDW>
-0.314505

>  <SCORE.SYSTEM.norm>
-0.193411

>  <SCORE.heavy>
29

>  <SCORE.norm>
-0.566401

$$$$
Chemical Block A3816/0161993
  rDOCK(R)          3D
libRbt.so/2021.1/901 2021/07/19
 26 29  0  0  0  0  0  0  0  0999 V2000
   -5.4661    2.4889   13.9587 C   0  0  0  0  0  0
   -5.1297    1.2018   14.3319 C   0  0  0  0  0  0
   -6.1698    3.0515   14.9914 N   0  0  0  0  0  0
   -5.1375    3.0497   12.7809 N   0  0  0  0  0  0
   -5.6361    0.9644   15.6316 C   0  0  0  0  0  0
   -4.4238    0.4370   13.4661 N   0  0  0  0  0  0
   -6.2856    2.1425   16.0310 C   0  0  0  0  0  0
   -4.4379    2.1795   12.0183 C   0  0  0  0  0  0
   -4.0693    0.9055   12.3051 N   0  0  0  0  0  0
   -6.7107    4.4008   14.9853 C   0  0  0  0  0  0
   -3.9110    2.7759   10.3777 S   0  0  0  0  0  0
   -5.7482    5.4092   15.5854 C   0  0  0  0  0  0
   -5.3053    6.4908   14.9676 C   0  0  0  0  0  0
   -5.6055   -0.1352   16.5120 C   0  0  0  0  0  0
   -6.9015    2.2516   17.2889 C   0  0  0  0  0  0
   -1.7262    6.4309   11.6666 C   0  0  0  0  0  0
   -2.5048    5.6453   10.9246 O   0  0  0  0  0  0
   -4.5863    4.4590   10.4001 C   0  0  0  0  0  0
   -3.8403    5.3708   11.3661 C   0  0  0  0  0  0
   -0.4416    6.6392   11.1519 C   0  0  0  0  0  0
   -2.0852    7.0384   12.8732 C   0  0  0  0  0  0
   -6.2203   -0.0305   17.7632 C   0  0  0  0  0  0
   -6.8573    1.1468   18.1447 C   0  0  0  0  0  0
   -1.1658    7.8431   13.5528 C   0  0  0  0  0  0
    0.4743    7.4429   11.8311 C   0  0  0  0  0  0
    0.1116    8.0466   13.0336 C   0  0  0  0  0  0
  1  2  2  0  0  0
  1  3  1  0  0  0
  1  4  1  0  0  0
  2  5  1  0  0  0
  2  6  1  0  0  0
  3  7  1  0  0  0
  3 10  1  0  0  0
  4  8  2  0  0  0
  5  7  2  0  0  0
  5 14  1  0  0  0
  6  9  2  0  0  0
  7 15  1  0  0  0
  8  9  1  0  0  0
  8 11  1  0  0  0
 10 12  1  0  0  0
 11 18  1  0  0  0
 12 13  2  0  0  0
 14 22  2  0  0  0
 15 23  2  0  0  0
 16 17  1  0  0  0
 16 20  1  0  0  0
 16 21  2  0  0  0
 17 19  1  0  0  0
 18 19  1  0  0  0
 20 25  2  0  0  0
 21 24  1  0  0  0
 22 23  1  0  0  0
 24 26  2  0  0  0
 25 26  1  0  0  0
M  END
>  <$CLUSTER>
243

>  <CHROM.0>
-179.81058611,171.94112218,72.96205917

>  <CHROM.1>
-4.20033646,3.73471077,13.54914621,3.13315469,0.97698788,0.89102363

>  <INDEX>
120541

>  <Name>
Chemical Block A3816/0161993

>  <RI>
-1.67511e+09

>  <Rbt.Current_Directory>
/aloy/home/acomajuncosa/PocketVec_v2/GitLab_repo

>  <Rbt.Executable>
rbdock ($Id: //depot/dev/client3/rdock/2021.1/src/exe/rbdock.cxx#4 $)

>  <Rbt.Library>
libRbt.so (2021.1, Build901 2021/07/19)

>  <Rbt.Parameter_File>
results/run_pocketvec/dock.prm

>  <Rbt.Receptor>
results/run_pocketvec/st_parameters.prm

>  <SCORE>
-14.0977

>  <SCORE.INTER>
-8.65161

>  <SCORE.INTER.CONST>
1

>  <SCORE.INTER.POLAR>
-0.123924

>  <SCORE.INTER.REPUL>
0

>  <SCORE.INTER.ROT>
7

>  <SCORE.INTER.VDW>
-20.6303

>  <SCORE.INTER.norm>
-0.332754

>  <SCORE.INTRA>
-1.62648e-12

>  <SCORE.INTRA.DIHEDRAL>
1.4122e-12

>  <SCORE.INTRA.DIHEDRAL.0>
4.85724

>  <SCORE.INTRA.POLAR>
0

>  <SCORE.INTRA.POLAR.0>
0

>  <SCORE.INTRA.REPUL>
0

>  <SCORE.INTRA.REPUL.0>
0

>  <SCORE.INTRA.VDW>
-2.33258e-12

>  <SCORE.INTRA.VDW.0>
-0.767951

>  <SCORE.INTRA.norm>
-6.25568e-14

>  <SCORE.RESTR>
0

>  <SCORE.RESTR.CAVITY>
0

>  <SCORE.RESTR.norm>
0

>  <SCORE.SYSTEM>
-5.44606

>  <SCORE.SYSTEM.CONST>
0

>  <SCORE.SYSTEM.DIHEDRAL>
1.17781

>  <SCORE.SYSTEM.POLAR>
-1.73815

>  <SCORE.SYSTEM.VDW>
-0.125267

>  <SCORE.SYSTEM.norm>
-0.209464

>  <SCORE.heavy>
26

>  <SCORE.norm>
-0.542218

$$$$
Biofocus 170_0148_0349
  rDOCK(R)          3D
libRbt.so/2021.1/901 2021/07/19
 30 33  0  0  0  0  0  0  0  0999 V2000
   -4.2819    4.1938   10.3985 N   0  0  0  0  0  0
   -4.6723    2.8801   10.7807 C   0  0  0  0  0  0
   -4.0396    4.9466   11.5636 C   0  0  0  0  0  0
   -4.6544    2.8699   12.1990 N   0  0  0  0  0  0
   -4.2685    4.1294   12.6578 C   0  0  0  0  0  0
   -3.6540    6.2229   11.6806 N   0  0  0  0  0  0
   -1.0939   10.2436   15.5161 C   0  0  0  0  0  0
   -4.1305    4.5294   13.9263 N   0  0  0  0  0  0
   -4.1542    4.6833    9.0339 C   0  0  0  0  0  0
   -3.5092    6.6435   12.9584 C   0  0  0  0  0  0
   -1.9037    9.8645   14.3293 C   0  0  0  0  0  0
   -2.2892    8.5259   14.2057 C   0  0  0  0  0  0
   -4.9643    1.9417   10.0531 O   0  0  0  0  0  0
   -3.0706    8.0891   13.1158 C   0  0  0  0  0  0
   -0.2830   11.3488   15.3809 N   0  0  0  0  0  0
   -3.7417    5.8184   14.0526 C   0  0  0  0  0  0
   -1.1568    9.5808   16.5469 O   0  0  0  0  0  0
   -2.7189    5.0832    8.6964 C   0  0  0  0  0  0
   -2.2861   10.7944   13.3679 C   0  0  0  0  0  0
   -5.1397    5.8107    8.7307 C   0  0  0  0  0  0
   -3.4354    9.0526   12.1527 C   0  0  0  0  0  0
   -3.0514   10.3881   12.2774 C   0  0  0  0  0  0
   -0.1610   12.1796   14.1719 C   0  0  0  0  0  0
    0.5568   11.7981   16.5000 C   0  0  0  0  0  0
   -2.0191    5.9767    9.5350 C   0  0  0  0  0  0
   -2.0868    4.6190    7.5384 C   0  0  0  0  0  0
   -0.7850    5.0211    7.2240 C   0  0  0  0  0  0
   -0.7190    6.3781    9.2200 C   0  0  0  0  0  0
   -0.1029    5.9006    8.0635 C   0  0  0  0  0  0
   -4.8836    2.0783   12.7827 H   0  0  0  0  0  0
  1  2  1  0  0  0
  1  3  1  0  0  0
  1  9  1  0  0  0
  2  4  1  0  0  0
  2 13  2  0  0  0
  3  5  2  0  0  0
  3  6  1  0  0  0
  4  5  1  0  0  0
  4 30  1  0  0  0
  5  8  1  0  0  0
  6 10  2  0  0  0
  7 11  1  0  0  0
  7 15  1  0  0  0
  7 17  2  0  0  0
  8 16  2  0  0  0
  9 18  1  0  0  0
  9 20  1  0  0  0
 10 14  1  0  0  0
 10 16  1  0  0  0
 11 12  1  0  0  0
 11 19  2  0  0  0
 12 14  2  0  0  0
 14 21  1  0  0  0
 15 23  1  0  0  0
 15 24  1  0  0  0
 18 25  1  0  0  0
 18 26  2  0  0  0
 19 22  1  0  0  0
 21 22  2  0  0  0
 25 28  2  0  0  0
 26 27  1  0  0  0
 27 29  2  0  0  0
 28 29  1  0  0  0
M  END
>  <$CLUSTER>
27

>  <CHROM.0>
176.91361857,172.19343890,75.05357127

>  <CHROM.1>
-2.67688780,6.89255837,11.96814188,2.05669296,-0.90339962,-2.06599735

>  <INDEX>
15645

>  <Name>
Biofocus 170_0148_0349

>  <RI>
-1.67511e+09

>  <Rbt.Current_Directory>
/aloy/home/acomajuncosa/PocketVec_v2/GitLab_repo

>  <Rbt.Executable>
rbdock ($Id: //depot/dev/client3/rdock/2021.1/src/exe/rbdock.cxx#4 $)

>  <Rbt.Library>
libRbt.so (2021.1, Build901 2021/07/19)

>  <Rbt.Parameter_File>
results/run_pocketvec/dock.prm

>  <Rbt.Receptor>
results/run_pocketvec/st_parameters.prm

>  <SCORE>
-11.3549

>  <SCORE.INTER>
-5.91349

>  <SCORE.INTER.CONST>
1

>  <SCORE.INTER.POLAR>
-0.769058

>  <SCORE.INTER.REPUL>
0

>  <SCORE.INTER.ROT>
4

>  <SCORE.INTER.VDW>
-12.6987

>  <SCORE.INTER.norm>
-0.203913

>  <SCORE.INTRA>
-4.28235e-12

>  <SCORE.INTRA.DIHEDRAL>
-1.6076e-13

>  <SCORE.INTRA.DIHEDRAL.0>
6.77079

>  <SCORE.INTRA.POLAR>
0

>  <SCORE.INTRA.POLAR.0>
0

>  <SCORE.INTRA.REPUL>
0

>  <SCORE.INTRA.REPUL.0>
0

>  <SCORE.INTRA.VDW>
-4.20197e-12

>  <SCORE.INTRA.VDW.0>
4.21568

>  <SCORE.INTRA.norm>
-1.47667e-13

>  <SCORE.RESTR>
0

>  <SCORE.RESTR.CAVITY>
0

>  <SCORE.RESTR.norm>
0

>  <SCORE.SYSTEM>
-5.44144

>  <SCORE.SYSTEM.CONST>
0

>  <SCORE.SYSTEM.DIHEDRAL>
1.44043

>  <SCORE.SYSTEM.POLAR>
-1.75531

>  <SCORE.SYSTEM.VDW>
-0.193613

>  <SCORE.SYSTEM.norm>
-0.187636

>  <SCORE.heavy>
29

>  <SCORE.norm>
-0.391549

$$$$
Life Chemicals F0631-0161
  rDOCK(R)          3D
libRbt.so/2021.1/901 2021/07/19
 28 31  0  0  0  0  0  0  0  0999 V2000
   -3.6703   -0.2609   10.9877 N   0  0  0  0  0  0
   -2.3318   -0.3919   11.2295 C   0  0  0  0  0  0
   -3.0580    1.9062   10.7965 C   0  0  0  0  0  0
   -4.0861    1.0353   10.7417 C   0  0  0  0  0  0
   -1.5091    1.1315   11.1611 S   0  0  0  0  0  0
   -1.9852   -1.6260   11.4554 N   0  0  0  0  0  0
   -4.2536   -1.4738   11.0536 N   0  0  0  0  0  0
   -3.2000   -2.2546   11.3365 C   0  0  0  0  0  0
   -3.2023    3.4180   10.5853 C   0  0  0  0  0  0
   -2.6661    4.2183   11.7299 N   0  3  0  0  0  0
   -2.5173    3.9049    9.3097 C   0  0  0  0  0  0
   -5.3901    1.3564   10.4801 O   0  0  0  0  0  0
   -1.2968    4.8637    6.9359 C   0  0  0  0  0  0
   -3.2067    4.7688    8.4113 C   0  0  0  0  0  0
   -1.1973    3.5528    8.9627 C   0  0  0  0  0  0
   -0.5948    4.0231    7.7953 C   0  0  0  0  0  0
   -2.6019    5.2374    7.2452 C   0  0  0  0  0  0
   -1.2603    6.3043   13.1855 O   0  0  0  0  0  0
   -0.6564    5.3928    5.6487 C   0  0  0  0  0  0
   -1.1800    4.1813   11.9882 C   0  0  0  0  0  0
   -3.2102    5.6097   11.8649 C   0  0  0  0  0  0
   -3.3371   -3.6910   11.5108 C   0  0  0  0  0  0
   -0.7655    4.9487   13.2071 C   0  0  0  0  0  0
   -2.7022    6.3317   13.1052 C   0  0  0  0  0  0
   -0.2987    4.2546    4.6883 C   0  0  0  0  0  0
    0.5697    6.2611    5.9444 C   0  0  0  0  0  0
   -3.0589    3.6691   12.4812 H   0  0  0  0  0  0
   -5.5549    2.2897   10.3268 H   0  0  0  0  0  0
  1  2  1  0  0  0
  1  4  1  0  0  0
  1  7  1  0  0  0
  2  5  1  0  0  0
  2  6  2  0  0  0
  3  4  2  0  0  0
  3  5  1  0  0  0
  3  9  1  0  0  0
  4 12  1  0  0  0
  6  8  1  0  0  0
  7  8  2  0  0  0
  8 22  1  0  0  0
  9 10  1  0  0  0
  9 11  1  0  0  0
 10 20  1  0  0  0
 10 21  1  0  0  0
 10 27  1  0  0  0
 11 14  1  0  0  0
 11 15  2  0  0  0
 12 28  1  0  0  0
 13 16  2  0  0  0
 13 17  1  0  0  0
 13 19  1  0  0  0
 14 17  2  0  0  0
 15 16  1  0  0  0
 18 23  1  0  0  0
 18 24  1  0  0  0
 19 25  1  0  0  0
 19 26  1  0  0  0
 20 23  1  0  0  0
 21 24  1  0  0  0
M  END
>  <$CLUSTER>
924

>  <CHROM.0>
175.86561391,171.60817662,74.02335960

>  <CHROM.1>
-2.25752848,2.75106155,10.14135964,-2.86861137,1.26915374,0.78590724

>  <INDEX>
279190

>  <Name>
Life Chemicals F0631-0161

>  <RI>
-1.67511e+09

>  <Rbt.Current_Directory>
/aloy/home/acomajuncosa/PocketVec_v2/GitLab_repo

>  <Rbt.Executable>
rbdock ($Id: //depot/dev/client3/rdock/2021.1/src/exe/rbdock.cxx#4 $)

>  <Rbt.Library>
libRbt.so (2021.1, Build901 2021/07/19)

>  <Rbt.Parameter_File>
results/run_pocketvec/dock.prm

>  <Rbt.Receptor>
results/run_pocketvec/st_parameters.prm

>  <SCORE>
-19.7874

>  <SCORE.INTER>
-14.3286

>  <SCORE.INTER.CONST>
1

>  <SCORE.INTER.POLAR>
-1

>  <SCORE.INTER.REPUL>
0.00115379

>  <SCORE.INTER.ROT>
4

>  <SCORE.INTER.VDW>
-20.3344

>  <SCORE.INTER.norm>
-0.551099

>  <SCORE.INTRA>
-1.21791e-12

>  <SCORE.INTRA.DIHEDRAL>
-1.2923e-13

>  <SCORE.INTRA.DIHEDRAL.0>
2.55816

>  <SCORE.INTRA.POLAR>
0

>  <SCORE.INTRA.POLAR.0>
0

>  <SCORE.INTRA.REPUL>
0

>  <SCORE.INTRA.REPUL.0>
0

>  <SCORE.INTRA.VDW>
-1.1533e-12

>  <SCORE.INTRA.VDW.0>
-1.73196

>  <SCORE.INTRA.norm>
-4.68429e-14

>  <SCORE.RESTR>
0

>  <SCORE.RESTR.CAVITY>
0

>  <SCORE.RESTR.norm>
0

>  <SCORE.SYSTEM>
-5.45879

>  <SCORE.SYSTEM.CONST>
0

>  <SCORE.SYSTEM.DIHEDRAL>
1.36502

>  <SCORE.SYSTEM.POLAR>
-1.7469

>  <SCORE.SYSTEM.VDW>
-0.201826

>  <SCORE.SYSTEM.norm>
-0.209954

>  <SCORE.heavy>
26

>  <SCORE.norm>
-0.761053

$$$$
Chembridge 9001855
  rDOCK(R)          3D
libRbt.so/2021.1/901 2021/07/19
 33 36  0  0  0  0  0  0  0  0999 V2000
   -1.7439    3.8745   13.0012 C   0  0  0  0  0  0
   -1.6808    3.3421   11.6219 C   0  0  0  0  0  0
   -0.6527    7.8789   10.4547 C   0  0  0  0  0  0
   -0.8172    6.5282    9.8015 C   0  0  0  0  0  0
   -2.8204    3.4609   13.7533 N   0  0  0  0  0  0
   -1.1299    5.5543   10.7415 N   0  0  0  0  0  0
   -1.3575    4.1697   10.5246 C   0  0  0  0  0  0
   -4.2723    1.8312   15.7332 N   0  0  0  0  0  0
    0.4183    8.7178   10.0451 C   0  0  0  0  0  0
   -1.5878    8.3288   11.3742 C   0  0  0  0  0  0
   -0.8814    4.6454   13.4089 O   0  0  0  0  0  0
   -0.6758    6.3981    8.5904 O   0  0  0  0  0  0
   -2.9740    3.9398   15.1423 C   0  0  0  0  0  0
   -3.8836    2.5475   13.3220 C   0  0  0  0  0  0
   -4.0683    1.3862   14.3411 C   0  0  0  0  0  0
   -3.1788    2.7452   16.1156 C   0  0  0  0  0  0
   -5.2796    1.4695   16.5148 C   0  0  0  0  0  0
    0.5258    9.9884   10.6238 C   0  0  0  0  0  0
   -1.4655    9.5946   11.9390 C   0  0  0  0  0  0
   -1.9180    1.9711   11.4377 C   0  0  0  0  0  0
   -0.4102   10.4228   11.5658 C   0  0  0  0  0  0
   -2.6113   10.1174   13.0854 Cl  0  0  0  0  0  0
    1.3040    8.2062    9.1324 O   0  0  0  0  0  0
   -1.2920    3.5847    9.2524 C   0  0  0  0  0  0
   -6.2888    0.5900   16.0751 C   0  0  0  0  0  0
   -5.4050    1.9393   17.8386 C   0  0  0  0  0  0
    2.3689    9.0481    8.7065 C   0  0  0  0  0  0
   -1.8486    1.4132   10.1643 C   0  0  0  0  0  0
   -1.5372    2.2185    9.0744 C   0  0  0  0  0  0
   -6.4680    1.5589   18.6686 C   0  0  0  0  0  0
   -7.3548    0.2053   16.8999 C   0  0  0  0  0  0
   -7.4438    0.6907   18.1970 C   0  0  0  0  0  0
   -1.2045    5.8704   11.6976 H   0  0  0  0  0  0
  1  2  1  0  0  0
  1  5  1  0  0  0
  1 11  2  0  0  0
  2  7  2  0  0  0
  2 20  1  0  0  0
  3  4  1  0  0  0
  3  9  2  0  0  0
  3 10  1  0  0  0
  4  6  1  0  0  0
  4 12  2  0  0  0
  5 13  1  0  0  0
  5 14  1  0  0  0
  6  7  1  0  0  0
  6 33  1  0  0  0
  7 24  1  0  0  0
  8 15  1  0  0  0
  8 16  1  0  0  0
  8 17  1  0  0  0
  9 18  1  0  0  0
  9 23  1  0  0  0
 10 19  2  0  0  0
 13 16  1  0  0  0
 14 15  1  0  0  0
 17 25  1  0  0  0
 17 26  2  0  0  0
 18 21  2  0  0  0
 19 21  1  0  0  0
 19 22  1  0  0  0
 20 28  2  0  0  0
 23 27  1  0  0  0
 24 29  2  0  0  0
 25 31  2  0  0  0
 26 30  1  0  0  0
 28 29  1  0  0  0
 30 32  2  0  0  0
 31 32  1  0  0  0
M  END
>  <$CLUSTER>
162

>  <CHROM.0>
3.35360959,171.19085337,73.87993930

>  <CHROM.1>
-2.35692500,4.92416973,12.71464866,-2.66923924,0.98389079,0.30318647

>  <INDEX>
107851

>  <Name>
Chembridge 9001855

>  <RI>
-1.67511e+09

>  <Rbt.Current_Directory>
/aloy/home/acomajuncosa/PocketVec_v2/GitLab_repo

>  <Rbt.Executable>
rbdock ($Id: //depot/dev/client3/rdock/2021.1/src/exe/rbdock.cxx#4 $)

>  <Rbt.Library>
libRbt.so (2021.1, Build901 2021/07/19)

>  <Rbt.Parameter_File>
results/run_pocketvec/dock.prm

>  <Rbt.Receptor>
results/run_pocketvec/st_parameters.prm

>  <SCORE>
-12.6746

>  <SCORE.INTER>
-7.06708

>  <SCORE.INTER.CONST>
1

>  <SCORE.INTER.POLAR>
0

>  <SCORE.INTER.REPUL>
0

>  <SCORE.INTER.ROT>
5

>  <SCORE.INTER.VDW>
-17.4671

>  <SCORE.INTER.norm>
-0.220846

>  <SCORE.INTRA>
-3.69926e-12

>  <SCORE.INTRA.DIHEDRAL>
-1.04805e-12

>  <SCORE.INTRA.DIHEDRAL.0>
12.5529

>  <SCORE.INTRA.POLAR>
0

>  <SCORE.INTRA.POLAR.0>
0

>  <SCORE.INTRA.REPUL>
0

>  <SCORE.INTRA.REPUL.0>
0

>  <SCORE.INTRA.VDW>
-3.17524e-12

>  <SCORE.INTRA.VDW.0>
3.51309

>  <SCORE.INTRA.norm>
-1.15602e-13

>  <SCORE.RESTR>
0

>  <SCORE.RESTR.CAVITY>
0

>  <SCORE.RESTR.norm>
0

>  <SCORE.SYSTEM>
-5.60752

>  <SCORE.SYSTEM.CONST>
0

>  <SCORE.SYSTEM.DIHEDRAL>
1.35934

>  <SCORE.SYSTEM.POLAR>
-1.74573

>  <SCORE.SYSTEM.VDW>
-0.351719

>  <SCORE.SYSTEM.norm>
-0.175235

>  <SCORE.heavy>
32

>  <SCORE.norm>
-0.396081

$$$$
Maybridge HTS 07015
  rDOCK(R)          3D
libRbt.so/2021.1/901 2021/07/19
 26 28  0  0  0  0  0  0  0  0999 V2000
   -1.2562    2.3699   12.0120 C   0  0  0  0  0  0
   -3.6038    2.1152   12.6478 C   0  0  0  0  0  0
   -1.2546    1.0653   11.5118 O   0  0  0  0  0  0
   -2.4026    0.2707   11.5651 C   0  0  0  0  0  0
   -2.3972    2.9291   12.5830 C   0  0  0  0  0  0
   -3.6027    0.8726   12.1708 C   0  0  0  0  0  0
    2.3789    4.9207   11.8547 C   0  0  0  0  0  0
   -0.0716    3.1091   11.9253 C   0  0  0  0  0  0
    1.1286    5.2417   12.3675 N   0  0  0  0  0  0
    4.7315    5.7918   11.4553 C   0  0  0  0  0  0
   -2.3567    4.2330   13.0696 C   0  0  0  0  0  0
    6.0244    5.2307    9.2278 C   0  0  0  0  0  0
   -0.0212    4.4187   12.4116 C   0  0  0  0  0  0
   -2.4168   -0.8746   11.1303 O   0  0  0  0  0  0
    3.3394    6.0760   11.9965 C   0  0  0  0  0  0
    2.7361    3.8667   11.3396 O   0  0  0  0  0  0
    4.7367    5.4954    9.9436 C   0  0  0  0  0  0
    6.5778    6.2504    8.7294 O   0  0  0  0  0  0
   -1.1760    4.9728   12.9841 C   0  0  0  0  0  0
    6.3940    4.0229    9.2118 O   0  5  0  0  0  0
   -4.8200    2.7349   13.2650 C   0  0  0  0  0  0
    5.4364    4.6380   12.1944 C   0  0  0  0  0  0
    5.6081    7.0755   11.6728 C   0  0  0  0  0  0
    7.0679    6.4611   11.6965 C   0  0  0  0  0  0
    6.9434    4.9752   12.0186 C   0  0  0  0  0  0
    1.0290    6.1697   12.7536 H   0  0  0  0  0  0
  1  3  1  0  0  0
  1  5  2  0  0  0
  1  8  1  0  0  0
  2  5  1  0  0  0
  2  6  2  0  0  0
  2 21  1  0  0  0
  3  4  1  0  0  0
  4  6  1  0  0  0
  4 14  2  0  0  0
  5 11  1  0  0  0
  7  9  1  0  0  0
  7 15  1  0  0  0
  7 16  2  0  0  0
  8 13  2  0  0  0
  9 13  1  0  0  0
  9 26  1  0  0  0
 10 15  1  0  0  0
 10 17  1  0  0  0
 10 22  1  0  0  0
 10 23  1  0  0  0
 11 19  2  0  0  0
 12 17  1  0  0  0
 12 18  2  0  0  0
 12 20  1  0  0  0
 13 19  1  0  0  0
 22 25  1  0  0  0
 23 24  1  0  0  0
 24 25  1  0  0  0
M  END
>  <$CLUSTER>
899

>  <CHROM.0>
0.01573107,171.22014487,73.79150296

>  <CHROM.1>
1.60455089,3.93031493,11.59690430,-2.87058786,0.35512319,0.49849775

>  <INDEX>
551863

>  <Name>
Maybridge HTS 07015

>  <RI>
-1.67511e+09

>  <Rbt.Current_Directory>
/aloy/home/acomajuncosa/PocketVec_v2/GitLab_repo

>  <Rbt.Executable>
rbdock ($Id: //depot/dev/client3/rdock/2021.1/src/exe/rbdock.cxx#4 $)

>  <Rbt.Library>
libRbt.so (2021.1, Build901 2021/07/19)

>  <Rbt.Parameter_File>
results/run_pocketvec/dock.prm

>  <Rbt.Receptor>
results/run_pocketvec/st_parameters.prm

>  <SCORE>
-13.36

>  <SCORE.INTER>
-7.75163

>  <SCORE.INTER.CONST>
1

>  <SCORE.INTER.POLAR>
-0.702551

>  <SCORE.INTER.REPUL>
0

>  <SCORE.INTER.ROT>
5

>  <SCORE.INTER.VDW>
-15.763

>  <SCORE.INTER.norm>
-0.310065

>  <SCORE.INTRA>
-1.04505e-12

>  <SCORE.INTRA.DIHEDRAL>
-8.83738e-13

>  <SCORE.INTRA.DIHEDRAL.0>
2.47798

>  <SCORE.INTRA.POLAR>
0

>  <SCORE.INTRA.POLAR.0>
0

>  <SCORE.INTRA.REPUL>
0

>  <SCORE.INTRA.REPUL.0>
0

>  <SCORE.INTRA.VDW>
-6.03184e-13

>  <SCORE.INTRA.VDW.0>
0.259464

>  <SCORE.INTRA.norm>
-4.18021e-14

>  <SCORE.RESTR>
0

>  <SCORE.RESTR.CAVITY>
0

>  <SCORE.RESTR.norm>
0

>  <SCORE.SYSTEM>
-5.60842

>  <SCORE.SYSTEM.CONST>
0

>  <SCORE.SYSTEM.DIHEDRAL>
1.33534

>  <SCORE.SYSTEM.POLAR>
-1.745

>  <SCORE.SYSTEM.VDW>
-0.343085

>  <SCORE.SYSTEM.norm>
-0.224337

>  <SCORE.heavy>
25

>  <SCORE.norm>
-0.534402

$$$$
Tripos 1554-03007
  rDOCK(R)          3D
libRbt.so/2021.1/901 2021/07/19
 22 23  0  0  0  0  0  0  0  0999 V2000
   -4.0143    2.3980   12.6205 S   0  0  0  0  0  0
   -3.2480    0.9176   12.3767 N   0  0  0  0  0  0
   -4.5302    2.2835   14.3316 C   0  0  0  0  0  0
   -3.9464   -2.6938   11.5526 C   0  0  0  0  0  0
   -3.2575   -1.4458   11.8204 C   0  0  0  0  0  0
   -2.9950    3.4291   12.5065 O   0  0  0  0  0  0
   -5.1913    2.4413   11.7692 O   0  0  0  0  0  0
   -3.2686   -3.7979   11.0227 C   0  0  0  0  0  0
   -4.0529   -0.3065   12.4313 C   0  0  0  0  0  0
   -1.8913   -1.4395   11.5568 C   0  0  0  0  0  0
   -5.7889    1.7645   14.6164 C   0  0  0  0  0  0
   -3.6984    2.7724   15.3265 C   0  0  0  0  0  0
   -1.9035   -3.7185   10.7569 C   0  0  0  0  0  0
   -5.6355   -2.8871   11.8766 Cl  0  0  0  0  0  0
   -5.3791    2.1840   16.9618 C   0  0  0  0  0  0
   -1.2142   -2.5411   11.0277 C   0  0  0  0  0  0
   -6.2104    1.7101   15.9463 C   0  0  0  0  0  0
   -4.1249    2.7145   16.6536 C   0  0  0  0  0  0
   -1.3363   -4.8115   10.2462 F   0  0  0  0  0  0
   -5.6894    2.1893   18.3104 O   0  0  0  0  0  0
   -6.9574    1.6615   18.6832 C   0  0  0  0  0  0
   -2.5302    0.8336   13.0825 H   0  0  0  0  0  0
  1  2  1  0  0  0
  1  3  1  0  0  0
  1  6  2  0  0  0
  1  7  2  0  0  0
  2  9  1  0  0  0
  2 22  1  0  0  0
  3 11  2  0  0  0
  3 12  1  0  0  0
  4  5  2  0  0  0
  4  8  1  0  0  0
  4 14  1  0  0  0
  5  9  1  0  0  0
  5 10  1  0  0  0
  8 13  2  0  0  0
 10 16  2  0  0  0
 11 17  1  0  0  0
 12 18  2  0  0  0
 13 16  1  0  0  0
 13 19  1  0  0  0
 15 17  2  0  0  0
 15 18  1  0  0  0
 15 20  1  0  0  0
 20 21  1  0  0  0
M  END
>  <$CLUSTER>
92

>  <CHROM.0>
-2.44186852,171.70621496,70.48940582

>  <CHROM.1>
-4.10841741,0.06405258,13.28510140,-2.16198274,-0.97316995,-2.89770008

>  <INDEX>
466465

>  <Name>
Tripos 1554-03007

>  <RI>
-1.67511e+09

>  <Rbt.Current_Directory>
/aloy/home/acomajuncosa/PocketVec_v2/GitLab_repo

>  <Rbt.Executable>
rbdock ($Id: //depot/dev/client3/rdock/2021.1/src/exe/rbdock.cxx#4 $)

>  <Rbt.Library>
libRbt.so (2021.1, Build901 2021/07/19)

>  <Rbt.Parameter_File>
results/run_pocketvec/dock.prm

>  <Rbt.Receptor>
results/run_pocketvec/st_parameters.prm

>  <SCORE>
18.123

>  <SCORE.INTER>
23.528

>  <SCORE.INTER.CONST>
1

>  <SCORE.INTER.POLAR>
-1.38009

>  <SCORE.INTER.REPUL>
0

>  <SCORE.INTER.ROT>
5

>  <SCORE.INTER.VDW>
17.8203

>  <SCORE.INTER.norm>
1.12038

>  <SCORE.INTRA>
-1.33848e-12

>  <SCORE.INTRA.DIHEDRAL>
-8.74856e-14

>  <SCORE.INTRA.DIHEDRAL.0>
2.47231

>  <SCORE.INTRA.POLAR>
0

>  <SCORE.INTRA.POLAR.0>
0

>  <SCORE.INTRA.REPUL>
0

>  <SCORE.INTRA.REPUL.0>
0

>  <SCORE.INTRA.VDW>
-1.29474e-12

>  <SCORE.INTRA.VDW.0>
0.642907

>  <SCORE.INTRA.norm>
-6.37374e-14

>  <SCORE.RESTR>
0.159731

>  <SCORE.RESTR.CAVITY>
0.159731

>  <SCORE.RESTR.norm>
0.00760626

>  <SCORE.SYSTEM>
-5.56476

>  <SCORE.SYSTEM.CONST>
0

>  <SCORE.SYSTEM.DIHEDRAL>
0.942677

>  <SCORE.SYSTEM.POLAR>
-1.71736

>  <SCORE.SYSTEM.VDW>
-0.197064

>  <SCORE.SYSTEM.norm>
-0.264988

>  <SCORE.heavy>
21

>  <SCORE.norm>
0.863

$$$$
Asinex ASN 06116813
  rDOCK(R)          3D
libRbt.so/2021.1/901 2021/07/19
 33 37  0  0  0  0  0  0  0  0999 V2000
   -3.3966    6.7463    9.3661 N   0  0  0  0  0  0
   -3.2755    5.7706   10.3343 C   0  0  0  0  0  0
   -2.7974    4.4699    9.9725 C   0  0  0  0  0  0
   -3.8618    7.8767    9.9238 N   0  0  0  0  0  0
   -4.0175    7.5934   11.2110 N   0  0  0  0  0  0
   -3.6582    6.2934   11.4816 N   0  0  0  0  0  0
   -3.0782    6.5750    8.0147 C   0  0  0  0  0  0
   -2.4671    4.2578    8.6789 C   0  0  0  0  0  0
   -3.8908    2.8869   11.5229 N   0  0  0  0  0  0
   -4.4577    3.3400   12.7199 C   0  0  0  0  0  0
   -2.6018    5.3042    7.6528 C   0  0  0  0  0  0
   -2.6167    3.3507   10.9787 C   0  0  0  0  0  0
   -3.6885    4.3959   13.4760 C   0  0  0  0  0  0
   -4.6145    1.8717   10.7465 C   0  0  0  0  0  0
   -5.5223    2.9212   13.1821 O   0  0  0  0  0  0
   -4.4035    5.2304   14.3205 C   0  0  0  0  0  0
   -3.2237    7.6001    7.0815 C   0  0  0  0  0  0
   -3.7308    6.2211   15.0380 C   0  0  0  0  0  0
   -4.2000    0.4630   11.1417 C   0  0  0  0  0  0
   -2.2655    5.0697    6.3180 C   0  0  0  0  0  0
   -2.3110    4.5234   13.3364 C   0  0  0  0  0  0
   -4.5399    6.9959   15.8449 O   0  0  0  0  0  0
   -2.4068    6.0901    5.3723 C   0  0  0  0  0  0
   -1.6419    5.5160   14.0585 C   0  0  0  0  0  0
   -2.8839    7.3484    5.7530 C   0  0  0  0  0  0
   -3.7311    8.9342    7.4917 C   0  0  0  0  0  0
   -2.3509    6.3653   14.9055 C   0  0  0  0  0  0
   -4.9868   -0.2864   12.0261 C   0  0  0  0  0  0
   -3.0177   -0.0950   10.6356 C   0  0  0  0  0  0
   -3.9057    8.0225   16.5990 C   0  0  0  0  0  0
   -2.6400   -1.3923   10.9915 C   0  0  0  0  0  0
   -4.6070   -1.5844   12.3816 C   0  0  0  0  0  0
   -3.4359   -2.1370   11.8622 C   0  0  0  0  0  0
  1  2  1  0  0  0
  1  4  1  0  0  0
  1  7  1  0  0  0
  2  3  1  0  0  0
  2  6  2  0  0  0
  3  8  2  0  0  0
  3 12  1  0  0  0
  4  5  2  0  0  0
  5  6  1  0  0  0
  7 11  2  0  0  0
  7 17  1  0  0  0
  8 11  1  0  0  0
  9 10  1  0  0  0
  9 12  1  0  0  0
  9 14  1  0  0  0
 10 13  1  0  0  0
 10 15  2  0  0  0
 11 20  1  0  0  0
 13 16  2  0  0  0
 13 21  1  0  0  0
 14 19  1  0  0  0
 16 18  1  0  0  0
 17 25  2  0  0  0
 17 26  1  0  0  0
 18 22  1  0  0  0
 18 27  2  0  0  0
 19 28  1  0  0  0
 19 29  2  0  0  0
 20 23  2  0  0  0
 21 24  2  0  0  0
 22 30  1  0  0  0
 23 25  1  0  0  0
 24 27  1  0  0  0
 28 32  2  0  0  0
 29 31  1  0  0  0
 31 33  2  0  0  0
 32 33  1  0  0  0
M  END
>  <$CLUSTER>
245

>  <CHROM.0>
-1.97065370,171.46828024,73.68002720

>  <CHROM.1>
-3.49046548,4.48755141,11.10397743,0.55444934,1.44232416,0.34879324

>  <INDEX>
154751

>  <Name>
Asinex ASN 06116813

>  <RI>
-1.67511e+09

>  <Rbt.Current_Directory>
/aloy/home/acomajuncosa/PocketVec_v2/GitLab_repo

>  <Rbt.Executable>
rbdock ($Id: //depot/dev/client3/rdock/2021.1/src/exe/rbdock.cxx#4 $)

>  <Rbt.Library>
libRbt.so (2021.1, Build901 2021/07/19)

>  <Rbt.Parameter_File>
results/run_pocketvec/dock.prm

>  <Rbt.Receptor>
results/run_pocketvec/st_parameters.prm

>  <SCORE>
-9.62921

>  <SCORE.INTER>
-4.02506

>  <SCORE.INTER.CONST>
1

>  <SCORE.INTER.POLAR>
-0.00850969

>  <SCORE.INTER.REPUL>
0

>  <SCORE.INTER.ROT>
6

>  <SCORE.INTER.VDW>
-15.3961

>  <SCORE.INTER.norm>
-0.121972

>  <SCORE.INTRA>
-1.14797e-12

>  <SCORE.INTRA.DIHEDRAL>
1.19549e-12

>  <SCORE.INTRA.DIHEDRAL.0>
6.2317

>  <SCORE.INTRA.POLAR>
0

>  <SCORE.INTRA.POLAR.0>
0

>  <SCORE.INTRA.REPUL>
0

>  <SCORE.INTRA.REPUL.0>
0

>  <SCORE.INTRA.VDW>
-1.74571e-12

>  <SCORE.INTRA.VDW.0>
2.55892

>  <SCORE.INTRA.norm>
-3.4787e-14

>  <SCORE.RESTR>
0

>  <SCORE.RESTR.CAVITY>
0

>  <SCORE.RESTR.norm>
0

>  <SCORE.SYSTEM>
-5.60415

>  <SCORE.SYSTEM.CONST>
0

>  <SCORE.SYSTEM.DIHEDRAL>
1.31052

>  <SCORE.SYSTEM.POLAR>
-1.74408

>  <SCORE.SYSTEM.VDW>
-0.329531

>  <SCORE.SYSTEM.norm>
-0.169823

>  <SCORE.heavy>
33

>  <SCORE.norm>
-0.291794

$$$$
Tripos 1559-05871
  rDOCK(R)          3D
libRbt.so/2021.1/901 2021/07/19
 20 21  0  0  0  0  0  0  0  0999 V2000
   -3.6722    2.9461   10.9403 S   0  0  0  0  0  0
   -3.6858    1.1980   11.1255 C   0  0  0  0  0  0
   -2.0591    3.3667   10.9755 N   0  0  0  0  0  0
   -4.8979    0.5041   11.1390 C   0  0  0  0  0  0
   -2.4795    0.4956   11.2594 C   0  0  0  0  0  0
   -4.8960   -0.8899   11.2875 C   0  0  0  0  0  0
   -4.1517    3.2617    9.6066 O   0  0  0  0  0  0
   -4.2766    3.5287   12.1239 O   0  0  0  0  0  0
   -3.6937   -1.5843   11.4207 C   0  0  0  0  0  0
   -2.4869   -0.8912   11.4071 C   0  0  0  0  0  0
   -1.1079    2.9098    9.8605 C   0  0  0  0  0  0
   -6.4418    1.2627   10.9819 Cl  0  0  0  0  0  0
   -1.2721    3.2150   12.2745 C   0  0  0  0  0  0
   -3.7190   -3.2772   11.5983 Cl  0  0  0  0  0  0
   -0.7221    4.1408    9.0379 C   0  0  0  0  0  0
   -1.8075    4.5447    8.2112 O   0  0  0  0  0  0
    0.1866    3.0692   11.8708 C   0  0  0  0  0  0
    0.0960    2.2885   10.5732 C   0  0  0  0  0  0
   -1.1959   -1.6296   11.5514 C   0  0  0  0  0  0
   -2.0171    3.8114    7.6281 H   0  0  0  0  0  0
  1  2  1  0  0  0
  1  3  1  0  0  0
  1  7  2  0  0  0
  1  8  2  0  0  0
  2  4  1  0  0  0
  2  5  2  0  0  0
  3 11  1  0  0  0
  3 13  1  0  0  0
  4  6  2  0  0  0
  4 12  1  0  0  0
  5 10  1  0  0  0
  6  9  1  0  0  0
  9 10  2  0  0  0
  9 14  1  0  0  0
 10 19  1  0  0  0
 11 15  1  0  0  0
 11 18  1  0  0  0
 13 17  1  0  0  0
 15 16  1  0  0  0
 16 20  1  0  0  0
 17 18  1  0  0  0
M  END
>  <$CLUSTER>
725

>  <CHROM.0>
4.86550935,171.72030286,73.69457884

>  <CHROM.1>
-3.09162259,1.33450377,10.92676024,1.16833643,0.01396383,-0.22508912

>  <INDEX>
474190

>  <Name>
Tripos 1559-05871

>  <RI>
-1.67511e+09

>  <Rbt.Current_Directory>
/aloy/home/acomajuncosa/PocketVec_v2/GitLab_repo

>  <Rbt.Executable>
rbdock ($Id: //depot/dev/client3/rdock/2021.1/src/exe/rbdock.cxx#4 $)

>  <Rbt.Library>
libRbt.so (2021.1, Build901 2021/07/19)

>  <Rbt.Parameter_File>
results/run_pocketvec/dock.prm

>  <Rbt.Receptor>
results/run_pocketvec/st_parameters.prm

>  <SCORE>
1.21953

>  <SCORE.INTER>
6.82347

>  <SCORE.INTER.CONST>
1

>  <SCORE.INTER.POLAR>
-0.597668

>  <SCORE.INTER.REPUL>
0

>  <SCORE.INTER.ROT>
3

>  <SCORE.INTER.VDW>
0.455541

>  <SCORE.INTER.norm>
0.35913

>  <SCORE.INTRA>
1.24234e-12

>  <SCORE.INTRA.DIHEDRAL>
1.7808e-13

>  <SCORE.INTRA.DIHEDRAL.0>
2.05975

>  <SCORE.INTRA.POLAR>
0

>  <SCORE.INTRA.POLAR.0>
0

>  <SCORE.INTRA.REPUL>
0

>  <SCORE.INTRA.REPUL.0>
0

>  <SCORE.INTRA.VDW>
1.1533e-12

>  <SCORE.INTRA.VDW.0>
-2.61259

>  <SCORE.INTRA.norm>
6.53863e-14

>  <SCORE.RESTR>
0

>  <SCORE.RESTR.CAVITY>
0

>  <SCORE.RESTR.norm>
0

>  <SCORE.SYSTEM>
-5.60394

>  <SCORE.SYSTEM.CONST>
0

>  <SCORE.SYSTEM.DIHEDRAL>
1.30931

>  <SCORE.SYSTEM.POLAR>
-1.7442

>  <SCORE.SYSTEM.VDW>
-0.328311

>  <SCORE.SYSTEM.norm>
-0.294944

>  <SCORE.heavy>
19

>  <SCORE.norm>
0.0641857

$$$$
Specs AN-648/40682295
  rDOCK(R)          3D
libRbt.so/2021.1/901 2021/07/19
 23 24  0  0  0  0  0  0  0  0999 V2000
   -0.3402    2.1290   11.0027 N   0  0  0  0  0  0
   -1.5011    2.3374   11.5325 C   0  0  0  0  0  0
   -2.4880    1.2209   11.6727 C   0  0  0  0  0  0
   -5.3925    4.4654   13.6529 C   0  0  0  0  0  0
    2.2521    4.6373   11.8712 C   0  0  0  0  0  0
   -3.7436    1.4889   12.2565 C   0  0  0  0  0  0
   -3.9876    2.7743   12.6663 O   0  0  0  0  0  0
    2.2279    5.4492   10.7384 C   0  0  0  0  0  0
    1.3967    3.5383   11.9616 C   0  0  0  0  0  0
   -4.5159    5.3101   13.4939 O   0  0  0  0  0  0
    0.5055    3.2475   10.9213 C   0  0  0  0  0  0
    1.3518    5.1608    9.6934 C   0  0  0  0  0  0
   -5.2537    3.0473   13.2551 C   0  0  0  0  0  0
   -6.6162    4.7341   14.2243 N   0  0  0  0  0  0
    0.4958    4.0620    9.7817 C   0  0  0  0  0  0
   -2.1613   -0.0546   11.2302 C   0  0  0  0  0  0
    3.1914    4.9383   12.9937 C   0  0  0  0  0  0
    3.1387    6.6294   10.6382 C   0  0  0  0  0  0
   -4.6562    0.4334   12.3804 C   0  0  0  0  0  0
   -3.0818   -1.0930   11.3615 C   0  0  0  0  0  0
   -4.3256   -0.8488   11.9350 C   0  0  0  0  0  0
   -6.8322    5.6695   14.5392 H   0  0  0  0  0  0
   -7.2980    3.9964   14.3287 H   0  0  0  0  0  0
  1  2  2  0  0  0
  1 11  1  0  0  0
  2  3  1  0  0  0
  3  6  2  0  0  0
  3 16  1  0  0  0
  4 10  2  0  0  0
  4 13  1  0  0  0
  4 14  1  0  0  0
  5  8  1  0  0  0
  5  9  2  0  0  0
  5 17  1  0  0  0
  6  7  1  0  0  0
  6 19  1  0  0  0
  7 13  1  0  0  0
  8 12  2  0  0  0
  8 18  1  0  0  0
  9 11  1  0  0  0
 11 15  2  0  0  0
 12 15  1  0  0  0
 14 22  1  0  0  0
 14 23  1  0  0  0
 16 20  2  0  0  0
 19 21  2  0  0  0
 20 21  1  0  0  0
M  END
>  <$CLUSTER>
813

>  <CHROM.0>
2.64637277,171.94581595,75.80817796

>  <CHROM.1>
-1.65929020,3.09707922,11.92331341,-0.30022152,-0.33652831,-2.86199741

>  <INDEX>
526345

>  <Name>
Specs AN-648/40682295

>  <RI>
-1.67511e+09

>  <Rbt.Current_Directory>
/aloy/home/acomajuncosa/PocketVec_v2/GitLab_repo

>  <Rbt.Executable>
rbdock ($Id: //depot/dev/client3/rdock/2021.1/src/exe/rbdock.cxx#4 $)

>  <Rbt.Library>
libRbt.so (2021.1, Build901 2021/07/19)

>  <Rbt.Parameter_File>
results/run_pocketvec/dock.prm

>  <Rbt.Receptor>
results/run_pocketvec/st_parameters.prm

>  <SCORE>
-12.6687

>  <SCORE.INTER>
-7.0802

>  <SCORE.INTER.CONST>
1

>  <SCORE.INTER.POLAR>
0

>  <SCORE.INTER.REPUL>
0

>  <SCORE.INTER.ROT>
5

>  <SCORE.INTER.VDW>
-17.4802

>  <SCORE.INTER.norm>
-0.337152

>  <SCORE.INTRA>
-5.18807e-13

>  <SCORE.INTRA.DIHEDRAL>
-4.35207e-14

>  <SCORE.INTRA.DIHEDRAL.0>
7.73422

>  <SCORE.INTRA.POLAR>
0

>  <SCORE.INTRA.POLAR.0>
0

>  <SCORE.INTRA.REPUL>
0

>  <SCORE.INTRA.REPUL.0>
0

>  <SCORE.INTRA.VDW>
-4.97047e-13

>  <SCORE.INTRA.VDW.0>
0.705343

>  <SCORE.INTRA.norm>
-2.47051e-14

>  <SCORE.RESTR>
0

>  <SCORE.RESTR.CAVITY>
0

>  <SCORE.RESTR.norm>
0

>  <SCORE.SYSTEM>
-5.5885

>  <SCORE.SYSTEM.CONST>
0

>  <SCORE.SYSTEM.DIHEDRAL>
1.54746

>  <SCORE.SYSTEM.POLAR>
-1.76139

>  <SCORE.SYSTEM.VDW>
-0.373501

>  <SCORE.SYSTEM.norm>
-0.266119

>  <SCORE.heavy>
21

>  <SCORE.norm>
-0.603272

$$$$
ASDI 150016433
  rDOCK(R)          3D
libRbt.so/2021.1/901 2021/07/19
 11 11  0  0  0  0  0  0  0  0999 V2000
   -5.5805    2.3421   12.3397 N   0  0  0  0  0  0
   -5.3059    2.5706   13.4499 C   0  0  0  0  0  0
   -4.9591    2.8697   14.8612 C   0  0  0  0  0  0
   -5.5418    1.8132   15.7931 C   0  0  0  0  0  0
   -3.5386    2.8938   15.0521 O   0  0  0  0  0  0
   -6.6354    2.1482   16.6435 C   0  0  0  0  0  0
   -5.0600    0.4995   15.8459 C   0  0  0  0  0  0
   -7.1997    1.1944   17.4932 C   0  0  0  0  0  0
   -5.6258   -0.4516   16.6960 C   0  0  0  0  0  0
   -6.6953   -0.1044   17.5199 C   0  0  0  0  0  0
   -3.2022    2.0193   14.8415 H   0  0  0  0  0  0
  1  2  3  0  0  0
  2  3  1  0  0  0
  3  4  1  0  0  0
  3  5  1  0  0  0
  4  6  2  0  0  0
  4  7  1  0  0  0
  5 11  1  0  0  0
  6  8  1  0  0  0
  7  9  2  0  0  0
  8 10  2  0  0  0
  9 10  1  0  0  0
M  END
>  <$CLUSTER>
24

>  <CHROM.0>
-0.37392983,172.13973404,74.00670402

>  <CHROM.1>
-5.55211962,1.60672938,15.54273682,1.16969875,-0.35923172,-1.16022231

>  <INDEX>
14597

>  <Name>
ASDI 150016433

>  <RI>
-1.67511e+09

>  <Rbt.Current_Directory>
/aloy/home/acomajuncosa/PocketVec_v2/GitLab_repo

>  <Rbt.Executable>
rbdock ($Id: //depot/dev/client3/rdock/2021.1/src/exe/rbdock.cxx#4 $)

>  <Rbt.Library>
libRbt.so (2021.1, Build901 2021/07/19)

>  <Rbt.Parameter_File>
results/run_pocketvec/dock.prm

>  <Rbt.Receptor>
results/run_pocketvec/st_parameters.prm

>  <SCORE>
-17.1332

>  <SCORE.INTER>
-11.5234

>  <SCORE.INTER.CONST>
1

>  <SCORE.INTER.POLAR>
-1.19965

>  <SCORE.INTER.REPUL>
0.00336674

>  <SCORE.INTER.ROT>
1

>  <SCORE.INTER.VDW>
-13.8614

>  <SCORE.INTER.norm>
-1.15234

>  <SCORE.INTRA>
-3.25684e-13

>  <SCORE.INTRA.DIHEDRAL>
-4.16334e-14

>  <SCORE.INTRA.DIHEDRAL.0>
0.752938

>  <SCORE.INTRA.POLAR>
0

>  <SCORE.INTRA.POLAR.0>
0

>  <SCORE.INTRA.REPUL>
0

>  <SCORE.INTRA.REPUL.0>
0

>  <SCORE.INTRA.VDW>
-3.04867e-13

>  <SCORE.INTRA.VDW.0>
-0.453069

>  <SCORE.INTRA.norm>
-3.25684e-14

>  <SCORE.RESTR>
0

>  <SCORE.RESTR.CAVITY>
0

>  <SCORE.RESTR.norm>
0

>  <SCORE.SYSTEM>
-5.6098

>  <SCORE.SYSTEM.CONST>
0

>  <SCORE.SYSTEM.DIHEDRAL>
1.29087

>  <SCORE.SYSTEM.POLAR>
-1.74677

>  <SCORE.SYSTEM.VDW>
-0.316225

>  <SCORE.SYSTEM.norm>
-0.56098

>  <SCORE.heavy>
10

>  <SCORE.norm>
-1.71332

$$$$
Tripos 1557-01752
  rDOCK(R)          3D
libRbt.so/2021.1/901 2021/07/19
 24 26  0  0  0  0  0  0  0  0999 V2000
   -4.2286    2.4791   12.7149 S   0  0  0  0  0  0
   -4.0468    3.9647   13.5343 C   0  0  0  0  0  0
   -2.8940    4.6699   13.7519 C   0  0  0  0  0  0
   -5.0579    4.7047   14.1940 C   0  0  0  0  0  0
   -4.5644    5.8208   14.7502 N   0  0  0  0  0  0
   -3.2455    5.7755   14.4685 N   0  0  0  0  0  0
   -3.0169    2.3601   11.5247 N   0  0  0  0  0  0
   -0.7088    2.8962    9.7772 N   0  0  0  0  0  0
   -5.5131    2.5861   12.0546 O   0  0  0  0  0  0
   -3.9787    1.4997   13.7527 O   0  0  0  0  0  0
   -3.1289    3.3238   10.4194 C   0  0  0  0  0  0
   -1.6375    2.2573   12.0551 C   0  0  0  0  0  0
    0.3170    3.5818    9.2901 C   0  0  0  0  0  0
   -2.0946    2.9770    9.2932 C   0  0  0  0  0  0
   -0.6407    1.9366   10.8880 C   0  0  0  0  0  0
   -1.2698    4.3928   13.3342 Cl  0  0  0  0  0  0
    1.6207    3.4505    9.8106 C   0  0  0  0  0  0
    0.1699    4.4885    8.2189 C   0  0  0  0  0  0
   -6.5024    4.3998   14.3333 C   0  0  0  0  0  0
   -2.3963    6.8442   14.9364 C   0  0  0  0  0  0
    2.5208    5.0559    8.2418 C   0  0  0  0  0  0
    2.7063    4.1736    9.2972 C   0  0  0  0  0  0
    1.2511    5.2136    7.7030 C   0  0  0  0  0  0
    3.5998    5.7045    7.8117 F   0  0  0  0  0  0
  1  2  1  0  0  0
  1  7  1  0  0  0
  1  9  2  0  0  0
  1 10  2  0  0  0
  2  3  2  0  0  0
  2  4  1  0  0  0
  3  6  1  0  0  0
  3 16  1  0  0  0
  4  5  2  0  0  0
  4 19  1  0  0  0
  5  6  1  0  0  0
  6 20  1  0  0  0
  7 11  1  0  0  0
  7 12  1  0  0  0
  8 13  1  0  0  0
  8 14  1  0  0  0
  8 15  1  0  0  0
 11 14  1  0  0  0
 12 15  1  0  0  0
 13 17  2  0  0  0
 13 18  1  0  0  0
 17 22  1  0  0  0
 18 23  2  0  0  0
 21 22  2  0  0  0
 21 23  1  0  0  0
 21 24  1  0  0  0
M  END
>  <$CLUSTER>
693

>  <CHROM.0>
176.99867751,172.03414306,72.91233470

>  <CHROM.1>
-1.87707237,3.89118013,11.67389872,2.73667311,0.58017153,0.76247586

>  <INDEX>
469101

>  <Name>
Tripos 1557-01752

>  <RI>
-1.67511e+09

>  <Rbt.Current_Directory>
/aloy/home/acomajuncosa/PocketVec_v2/GitLab_repo

>  <Rbt.Executable>
rbdock ($Id: //depot/dev/client3/rdock/2021.1/src/exe/rbdock.cxx#4 $)

>  <Rbt.Library>
libRbt.so (2021.1, Build901 2021/07/19)

>  <Rbt.Parameter_File>
results/run_pocketvec/dock.prm

>  <Rbt.Receptor>
results/run_pocketvec/st_parameters.prm

>  <SCORE>
-12.6392

>  <SCORE.INTER>
-7.18824

>  <SCORE.INTER.CONST>
1

>  <SCORE.INTER.POLAR>
-0.73147

>  <SCORE.INTER.REPUL>
0

>  <SCORE.INTER.ROT>
3

>  <SCORE.INTER.VDW>
-13.1012

>  <SCORE.INTER.norm>
-0.29951

>  <SCORE.INTRA>
6.58573e-12

>  <SCORE.INTRA.DIHEDRAL>
-2.25819e-13

>  <SCORE.INTRA.DIHEDRAL.0>
1.22968

>  <SCORE.INTRA.POLAR>
0

>  <SCORE.INTRA.POLAR.0>
0

>  <SCORE.INTRA.REPUL>
0

>  <SCORE.INTRA.REPUL.0>
0

>  <SCORE.INTRA.VDW>
6.69864e-12

>  <SCORE.INTRA.VDW.0>
11.0573

>  <SCORE.INTRA.norm>
2.74405e-13

>  <SCORE.RESTR>
0

>  <SCORE.RESTR.CAVITY>
0

>  <SCORE.RESTR.norm>
0

>  <SCORE.SYSTEM>
-5.45092

>  <SCORE.SYSTEM.CONST>
0

>  <SCORE.SYSTEM.DIHEDRAL>
1.18358

>  <SCORE.SYSTEM.POLAR>
-1.73773

>  <SCORE.SYSTEM.VDW>
-0.134418

>  <SCORE.SYSTEM.norm>
-0.227122

>  <SCORE.heavy>
24

>  <SCORE.norm>
-0.526632

$$$$
Tripos 1518-06794
  rDOCK(R)          3D
libRbt.so/2021.1/901 2021/07/19
 29 32  0  0  0  0  0  0  0  0999 V2000
   -1.1064    7.8846   13.7528 N   0  0  0  0  0  0
   -4.1530    9.0542   10.6590 C   0  0  0  0  0  0
   -2.1550    8.5453   14.3390 C   0  0  0  0  0  0
   -1.6015    6.6817   13.6070 C   0  0  0  0  0  0
   -4.5644   10.4312   11.1155 C   0  0  0  0  0  0
   -3.2523    7.8035   14.5448 N   0  0  0  0  0  0
   -5.3130    7.8591   10.4015 S   0  0  0  0  0  0
   -2.8766    6.5477   14.0540 O   0  0  0  0  0  0
   -3.5565   11.3489   11.3024 N   0  0  0  0  0  0
   -4.1311    6.7141    9.9453 C   0  0  0  0  0  0
   -2.8620    8.6049   10.4049 C   0  0  0  0  0  0
   -2.8622    7.2410    9.9901 C   0  0  0  0  0  0
   -2.4093   10.8736   13.5654 N   0  3  0  0  0  0
   -2.0819    9.9717   14.6999 C   0  0  0  0  0  0
   -5.7604   10.6730   11.2973 O   0  0  0  0  0  0
   -0.9956    5.5347   13.0576 C   0  0  0  0  0  0
   -2.1117   11.1072   11.0977 C   0  0  0  0  0  0
   -4.6129    5.0709    9.4847 S   0  0  0  0  0  0
   -1.3773   10.8762   12.4579 C   0  0  0  0  0  0
   -2.9512   13.2561   12.8518 C   0  0  0  0  0  0
   -3.8628   12.7147   11.7461 C   0  0  0  0  0  0
   -2.7006   12.2919   14.0043 C   0  0  0  0  0  0
   -1.6700    4.3120   12.9744 C   0  0  0  0  0  0
    0.3196    5.6280   12.5846 C   0  0  0  0  0  0
   -3.0725    4.1418    9.6315 C   0  0  0  0  0  0
   -1.0363    3.1952   12.4228 C   0  0  0  0  0  0
    0.9512    4.5106   12.0332 C   0  0  0  0  0  0
    0.2730    3.2939   11.9539 C   0  0  0  0  0  0
   -3.2553   10.4770   13.1814 H   0  0  0  0  0  0
  1  3  1  0  0  0
  1  4  2  0  0  0
  2  5  1  0  0  0
  2  7  1  0  0  0
  2 11  2  0  0  0
  3  6  2  0  0  0
  3 14  1  0  0  0
  4  8  1  0  0  0
  4 16  1  0  0  0
  5  9  1  0  0  0
  5 15  2  0  0  0
  6  8  1  0  0  0
  7 10  1  0  0  0
  9 17  1  0  0  0
  9 21  1  0  0  0
 10 12  2  0  0  0
 10 18  1  0  0  0
 11 12  1  0  0  0
 13 14  1  0  0  0
 13 19  1  0  0  0
 13 22  1  0  0  0
 13 29  1  0  0  0
 16 23  2  0  0  0
 16 24  1  0  0  0
 17 19  1  0  0  0
 18 25  1  0  0  0
 20 21  1  0  0  0
 20 22  1  0  0  0
 23 26  1  0  0  0
 24 27  2  0  0  0
 26 28  2  0  0  0
 27 28  1  0  0  0
M  END
>  <$CLUSTER>
675

>  <CHROM.0>
171.18304885,170.38689049,71.20743538

>  <CHROM.1>
-2.79909137,7.99376606,11.95956261,-1.24016236,-0.75365958,0.33812390

>  <INDEX>
443512

>  <Name>
Tripos 1518-06794

>  <RI>
-1.67511e+09

>  <Rbt.Current_Directory>
/aloy/home/acomajuncosa/PocketVec_v2/GitLab_repo

>  <Rbt.Executable>
rbdock ($Id: //depot/dev/client3/rdock/2021.1/src/exe/rbdock.cxx#4 $)

>  <Rbt.Library>
libRbt.so (2021.1, Build901 2021/07/19)

>  <Rbt.Parameter_File>
results/run_pocketvec/dock.prm

>  <Rbt.Receptor>
results/run_pocketvec/st_parameters.prm

>  <SCORE>
-10.2767

>  <SCORE.INTER>
-4.8405

>  <SCORE.INTER.CONST>
1

>  <SCORE.INTER.POLAR>
0

>  <SCORE.INTER.REPUL>
0

>  <SCORE.INTER.ROT>
5

>  <SCORE.INTER.VDW>
-15.2405

>  <SCORE.INTER.norm>
-0.172875

>  <SCORE.INTRA>
6.17795e-12

>  <SCORE.INTRA.DIHEDRAL>
-1.30562e-12

>  <SCORE.INTRA.DIHEDRAL.0>
2.08077

>  <SCORE.INTRA.POLAR>
0

>  <SCORE.INTRA.POLAR.0>
0

>  <SCORE.INTRA.REPUL>
0

>  <SCORE.INTRA.REPUL.0>
0

>  <SCORE.INTRA.VDW>
6.83076e-12

>  <SCORE.INTRA.VDW.0>
-0.547594

>  <SCORE.INTRA.norm>
2.20641e-13

>  <SCORE.RESTR>
0

>  <SCORE.RESTR.CAVITY>
0

>  <SCORE.RESTR.norm>
0

>  <SCORE.SYSTEM>
-5.43622

>  <SCORE.SYSTEM.CONST>
0

>  <SCORE.SYSTEM.DIHEDRAL>
1.2407

>  <SCORE.SYSTEM.POLAR>
-1.72345

>  <SCORE.SYSTEM.VDW>
-0.196846

>  <SCORE.SYSTEM.norm>
-0.194151

>  <SCORE.heavy>
28

>  <SCORE.norm>
-0.367026

$$$$
InterBioScreen STOCK5S-48304
  rDOCK(R)          3D
libRbt.so/2021.1/901 2021/07/19
 33 37  0  0  0  0  0  0  0  0999 V2000
   -4.2053    5.5088   10.2191 C   0  0  0  0  0  0
   -3.4338    4.8179    9.3775 C   0  0  0  0  0  0
   -3.1898    3.3878    9.6686 N   0  0  0  0  0  0
   -4.8129    4.8722   11.4281 C   0  0  0  0  0  0
   -4.5173    3.5401   11.5989 N   0  0  0  0  0  0
   -3.7254    2.8667   10.7172 C   0  0  0  0  0  0
   -4.4438    6.9332    9.9221 C   0  0  0  0  0  0
   -2.8269    5.3082    8.2381 N   0  0  0  0  0  0
   -3.8103    7.4964    8.7087 C   0  0  0  0  0  0
   -3.0105    6.6674    7.8884 C   0  0  0  0  0  0
   -5.0898    2.8767   12.7962 C   0  0  0  0  0  0
   -3.4171    1.4395   10.8936 C   0  0  0  0  0  0
   -5.5222    5.5044   12.2050 O   0  0  0  0  0  0
   -5.1434    7.6158   10.6597 O   0  0  0  0  0  0
   -2.2577    1.0668   11.5741 C   0  0  0  0  0  0
   -4.2869    0.4803   10.3730 C   0  0  0  0  0  0
   -1.9985    4.4647    7.3802 C   0  0  0  0  0  0
   -4.2212    3.0813   14.0299 C   0  0  0  0  0  0
   -2.8584   -1.2554   11.2623 C   0  0  0  0  0  0
   -4.0205    8.8466    8.4039 C   0  0  0  0  0  0
   -1.9834   -0.2877   11.7631 C   0  0  0  0  0  0
   -4.0067   -0.8731   10.5656 C   0  0  0  0  0  0
   -2.4344    7.2574    6.7494 C   0  0  0  0  0  0
   -4.7997    2.3967   15.2404 C   0  0  0  0  0  0
   -2.4720   -2.5593   11.5080 O   0  0  0  0  0  0
   -4.4648    1.0670   15.5380 C   0  0  0  0  0  0
   -5.7021    3.0684   16.0780 C   0  0  0  0  0  0
   -3.3236   -3.5877   11.0156 C   0  0  0  0  0  0
   -3.4348    9.3988    7.2689 C   0  0  0  0  0  0
   -2.6435    8.6056    6.4435 C   0  0  0  0  0  0
   -6.2487    2.4284   17.1916 C   0  0  0  0  0  0
   -5.0127    0.4289   16.6517 C   0  0  0  0  0  0
   -5.9029    1.1108   17.4779 C   0  0  0  0  0  0
  1  2  2  0  0  0
  1  4  1  0  0  0
  1  7  1  0  0  0
  2  3  1  0  0  0
  2  8  1  0  0  0
  3  6  2  0  0  0
  4  5  1  0  0  0
  4 13  2  0  0  0
  5  6  1  0  0  0
  5 11  1  0  0  0
  6 12  1  0  0  0
  7  9  1  0  0  0
  7 14  2  0  0  0
  8 10  1  0  0  0
  8 17  1  0  0  0
  9 10  2  0  0  0
  9 20  1  0  0  0
 10 23  1  0  0  0
 11 18  1  0  0  0
 12 15  2  0  0  0
 12 16  1  0  0  0
 15 21  1  0  0  0
 16 22  2  0  0  0
 18 24  1  0  0  0
 19 21  2  0  0  0
 19 22  1  0  0  0
 19 25  1  0  0  0
 20 29  2  0  0  0
 23 30  2  0  0  0
 24 26  1  0  0  0
 24 27  2  0  0  0
 25 28  1  0  0  0
 26 32  2  0  0  0
 27 31  1  0  0  0
 29 30  1  0  0  0
 31 33  2  0  0  0
 32 33  1  0  0  0
M  END
>  <$CLUSTER>
574

>  <CHROM.0>
-55.80967977,171.28640726,73.97147951

>  <CHROM.1>
-3.91583371,3.41276579,11.23917031,1.34671931,1.13841348,-0.48019910

>  <INDEX>
377513

>  <Name>
InterBioScreen STOCK5S-48304

>  <RI>
-1.67511e+09

>  <Rbt.Current_Directory>
/aloy/home/acomajuncosa/PocketVec_v2/GitLab_repo

>  <Rbt.Executable>
rbdock ($Id: //depot/dev/client3/rdock/2021.1/src/exe/rbdock.cxx#4 $)

>  <Rbt.Library>
libRbt.so (2021.1, Build901 2021/07/19)

>  <Rbt.Parameter_File>
results/run_pocketvec/dock.prm

>  <Rbt.Receptor>
results/run_pocketvec/st_parameters.prm

>  <SCORE>
-9.35541

>  <SCORE.INTER>
-5.02779

>  <SCORE.INTER.CONST>
1

>  <SCORE.INTER.POLAR>
0

>  <SCORE.INTER.REPUL>
0

>  <SCORE.INTER.ROT>
5

>  <SCORE.INTER.VDW>
-15.4278

>  <SCORE.INTER.norm>
-0.152357

>  <SCORE.INTRA>
-4.15978e-12

>  <SCORE.INTRA.DIHEDRAL>
1.91847e-13

>  <SCORE.INTRA.DIHEDRAL.0>
7.97009

>  <SCORE.INTRA.POLAR>
0

>  <SCORE.INTRA.POLAR.0>
0

>  <SCORE.INTRA.REPUL>
0

>  <SCORE.INTRA.REPUL.0>
0

>  <SCORE.INTRA.VDW>
-4.25571e-12

>  <SCORE.INTRA.VDW.0>
-0.382077

>  <SCORE.INTRA.norm>
-1.26054e-13

>  <SCORE.RESTR>
0

>  <SCORE.RESTR.CAVITY>
0

>  <SCORE.RESTR.norm>
0

>  <SCORE.SYSTEM>
-4.32762

>  <SCORE.SYSTEM.CONST>
0

>  <SCORE.SYSTEM.DIHEDRAL>
4.68155

>  <SCORE.SYSTEM.POLAR>
-1.74648

>  <SCORE.SYSTEM.VDW>
-0.730372

>  <SCORE.SYSTEM.norm>
-0.13114

>  <SCORE.heavy>
33

>  <SCORE.norm>
-0.283497

$$$$
Chem T&I PMOS-0027433
  rDOCK(R)          3D
libRbt.so/2021.1/901 2021/07/19
 34 38  0  0  0  0  0  0  0  0999 V2000
   -4.8809    2.6591   15.2998 N   0  0  0  0  0  0
   -3.6945    2.2264   14.8645 N   0  0  0  0  0  0
   -5.2826    3.8937   14.9866 N   0  0  0  0  0  0
    1.4524    4.8928   11.0572 C   0  0  0  0  0  0
   -3.2822    3.3064   14.1923 C   0  0  0  0  0  0
   -4.2443    4.3118   14.2686 C   0  0  0  0  0  0
    4.9394    5.9151   11.8115 N   0  3  0  0  0  0
    0.4080    4.2363   11.8612 C   0  0  0  0  0  0
    1.2254    5.3953    9.7585 C   0  0  0  0  0  0
   -2.0940    3.5171   13.4848 C   0  0  0  0  0  0
    2.6814    5.0647   11.7168 C   0  0  0  0  0  0
   -1.8593    4.7384   12.8454 C   0  0  0  0  0  0
    3.7084    5.7736   11.1062 C   0  0  0  0  0  0
    0.0629    5.1830    9.0262 N   0  0  0  0  0  0
   -0.6926    5.0183   12.1228 N   0  0  0  0  0  0
   -4.0203    5.5303   13.6365 C   0  0  0  0  0  0
   -2.8355    5.7431   12.9292 C   0  0  0  0  0  0
    2.2877    6.1298    9.1877 C   0  0  0  0  0  0
    5.8145    6.5574   11.2145 O   0  5  0  0  0  0
   -5.7253    1.7910   16.1080 C   0  0  0  0  0  0
    5.0874    5.4192   12.9375 O   0  0  0  0  0  0
    0.5751    3.0950   12.2766 O   0  0  0  0  0  0
    3.5090    6.3160    9.8442 C   0  0  0  0  0  0
   -1.3689    4.4287    6.7455 O   0  0  0  0  0  0
   -0.6351    3.9063    9.0467 C   0  0  0  0  0  0
   -0.4631    6.2347    8.1682 C   0  0  0  0  0  0
   -0.6013    5.6342    6.7510 C   0  0  0  0  0  0
   -0.7640    3.4378    7.5798 C   0  0  0  0  0  0
   -5.2973    0.4972   16.4314 C   0  0  0  0  0  0
   -6.9697    2.2479   16.5628 C   0  0  0  0  0  0
   -7.7768    1.4112   17.3377 C   0  0  0  0  0  0
   -6.1112   -0.3316   17.2070 C   0  0  0  0  0  0
   -7.3487    0.1234   17.6594 C   0  0  0  0  0  0
   -0.6532    5.9471   11.7293 H   0  0  0  0  0  0
  1  2  1  0  0  0
  1  3  1  0  0  0
  1 20  1  0  0  0
  2  5  2  0  0  0
  3  6  2  0  0  0
  4  8  1  0  0  0
  4  9  1  0  0  0
  4 11  2  0  0  0
  5  6  1  0  0  0
  5 10  1  0  0  0
  6 16  1  0  0  0
  7 13  1  0  0  0
  7 19  1  0  0  0
  7 21  2  0  0  0
  8 15  1  0  0  0
  8 22  2  0  0  0
  9 14  1  0  0  0
  9 18  2  0  0  0
 10 12  2  0  0  0
 11 13  1  0  0  0
 12 15  1  0  0  0
 12 17  1  0  0  0
 13 23  2  0  0  0
 14 25  1  0  0  0
 14 26  1  0  0  0
 15 34  1  0  0  0
 16 17  2  0  0  0
 18 23  1  0  0  0
 20 29  1  0  0  0
 20 30  2  0  0  0
 24 27  1  0  0  0
 24 28  1  0  0  0
 25 28  1  0  0  0
 26 27  1  0  0  0
 29 32  2  0  0  0
 30 31  1  0  0  0
 31 33  2  0  0  0
 32 33  1  0  0  0
M  END
>  <$CLUSTER>
932

>  <CHROM.0>
175.88282881,172.51458264,72.91729624

>  <CHROM.1>
-1.23623301,4.09909837,12.34234472,-2.46992454,-0.26763332,-1.34667544

>  <INDEX>
610791

>  <Name>
Chem T&I PMOS-0027433

>  <RI>
-1.67511e+09

>  <Rbt.Current_Directory>
/aloy/home/acomajuncosa/PocketVec_v2/GitLab_repo

>  <Rbt.Executable>
rbdock ($Id: //depot/dev/client3/rdock/2021.1/src/exe/rbdock.cxx#4 $)

>  <Rbt.Library>
libRbt.so (2021.1, Build901 2021/07/19)

>  <Rbt.Parameter_File>
results/run_pocketvec/dock.prm

>  <Rbt.Receptor>
results/run_pocketvec/st_parameters.prm

>  <SCORE>
-13.2121

>  <SCORE.INTER>
-7.76279

>  <SCORE.INTER.CONST>
1

>  <SCORE.INTER.POLAR>
0

>  <SCORE.INTER.REPUL>
0.385674

>  <SCORE.INTER.ROT>
4

>  <SCORE.INTER.VDW>
-19.0912

>  <SCORE.INTER.norm>
-0.235236

>  <SCORE.INTRA>
1.34115e-12

>  <SCORE.INTRA.DIHEDRAL>
-1.42109e-14

>  <SCORE.INTRA.DIHEDRAL.0>
14.6395

>  <SCORE.INTRA.POLAR>
0

>  <SCORE.INTRA.POLAR.0>
0

>  <SCORE.INTRA.REPUL>
0

>  <SCORE.INTRA.REPUL.0>
0

>  <SCORE.INTRA.VDW>
1.34825e-12

>  <SCORE.INTRA.VDW.0>
-1.3784

>  <SCORE.INTRA.norm>
4.06409e-14

>  <SCORE.RESTR>
0

>  <SCORE.RESTR.CAVITY>
0

>  <SCORE.RESTR.norm>
0

>  <SCORE.SYSTEM>
-5.44933

>  <SCORE.SYSTEM.CONST>
0

>  <SCORE.SYSTEM.DIHEDRAL>
1.16251

>  <SCORE.SYSTEM.POLAR>
-1.73777

>  <SCORE.SYSTEM.VDW>
-0.122158

>  <SCORE.SYSTEM.norm>
-0.165131

>  <SCORE.heavy>
33

>  <SCORE.norm>
-0.400367

$$$$
Lithuania 1067744
  rDOCK(R)          3D
libRbt.so/2021.1/901 2021/07/19
 29 32  0  0  0  0  0  0  0  0999 V2000
   -3.8424    2.2598   14.0318 N   0  0  0  0  0  0
   -3.7673    1.5130   12.8365 C   0  0  0  0  0  0
   -3.0586    3.5086   14.1872 C   0  0  0  0  0  0
   -1.7788    3.4366   13.5061 N   0  0  0  0  0  0
   -2.6192    1.7996   11.9403 C   0  0  0  0  0  0
   -1.6372    2.7044   12.3475 C   0  0  0  0  0  0
   -3.7789    4.7765   13.7458 C   0  0  0  0  0  0
   -4.7168    1.8512   15.1158 C   0  0  0  0  0  0
   -3.4670    5.9901   14.3842 C   0  0  0  0  0  0
   -4.5653    0.6544   12.4722 O   0  0  0  0  0  0
   -4.0850    7.1821   14.0036 C   0  0  0  0  0  0
   -5.0204    7.1818   12.9716 C   0  0  0  0  0  0
   -4.7153    4.7978   12.7002 C   0  0  0  0  0  0
   -5.3331    5.9921   12.3204 C   0  0  0  0  0  0
   -5.1546    2.7614   16.0946 C   0  0  0  0  0  0
   -5.1364    0.5160   15.2527 C   0  0  0  0  0  0
   -6.4065    1.0403   17.2441 C   0  0  0  0  0  0
   -2.4922    1.1050   10.7295 C   0  0  0  0  0  0
   -3.8313    8.4037   14.5933 O   0  0  0  0  0  0
   -5.9742    0.1168   16.3014 C   0  0  0  0  0  0
   -5.9937    2.3633   17.1416 C   0  0  0  0  0  0
   -7.2067    0.5814   18.2039 F   0  0  0  0  0  0
   -5.5756    8.4022   12.6607 O   0  0  0  0  0  0
   -0.5213    2.8999   11.5214 C   0  0  0  0  0  0
   -2.8830    8.4397   15.6538 C   0  0  0  0  0  0
   -6.5334    8.4393   11.6097 C   0  0  0  0  0  0
   -1.3793    1.3153    9.9178 C   0  0  0  0  0  0
   -0.3917    2.2105   10.3146 C   0  0  0  0  0  0
   -0.9829    3.9285   13.8856 H   0  0  0  0  0  0
  1  2  1  0  0  0
  1  3  1  0  0  0
  1  8  1  0  0  0
  2  5  1  0  0  0
  2 10  2  0  0  0
  3  4  1  0  0  0
  3  7  1  0  0  0
  4  6  1  0  0  0
  4 29  1  0  0  0
  5  6  2  0  0  0
  5 18  1  0  0  0
  6 24  1  0  0  0
  7  9  1  0  0  0
  7 13  2  0  0  0
  8 15  1  0  0  0
  8 16  2  0  0  0
  9 11  2  0  0  0
 11 12  1  0  0  0
 11 19  1  0  0  0
 12 14  2  0  0  0
 12 23  1  0  0  0
 13 14  1  0  0  0
 15 21  2  0  0  0
 16 20  1  0  0  0
 17 20  2  0  0  0
 17 21  1  0  0  0
 17 22  1  0  0  0
 18 27  2  0  0  0
 19 25  1  0  0  0
 23 26  1  0  0  0
 24 28  2  0  0  0
 27 28  1  0  0  0
M  END
>  <$CLUSTER>
336

>  <CHROM.0>
0.07532260,172.65487760,71.30313452

>  <CHROM.1>
-4.05477957,3.70492882,13.76581301,-1.71934661,0.89416126,-0.18071102

>  <INDEX>
222901

>  <Name>
Lithuania 1067744

>  <RI>
-1.67511e+09

>  <Rbt.Current_Directory>
/aloy/home/acomajuncosa/PocketVec_v2/GitLab_repo

>  <Rbt.Executable>
rbdock ($Id: //depot/dev/client3/rdock/2021.1/src/exe/rbdock.cxx#4 $)

>  <Rbt.Library>
libRbt.so (2021.1, Build901 2021/07/19)

>  <Rbt.Parameter_File>
results/run_pocketvec/dock.prm

>  <Rbt.Receptor>
results/run_pocketvec/st_parameters.prm

>  <SCORE>
-15.6889

>  <SCORE.INTER>
-10.0984

>  <SCORE.INTER.CONST>
1

>  <SCORE.INTER.POLAR>
-0.727607

>  <SCORE.INTER.REPUL>
0

>  <SCORE.INTER.ROT>
4

>  <SCORE.INTER.VDW>
-17.0245

>  <SCORE.INTER.norm>
-0.360657

>  <SCORE.INTRA>
-4.48125e-12

>  <SCORE.INTRA.DIHEDRAL>
-2.67342e-13

>  <SCORE.INTRA.DIHEDRAL.0>
2.4816

>  <SCORE.INTRA.POLAR>
0

>  <SCORE.INTRA.POLAR.0>
0

>  <SCORE.INTRA.REPUL>
7.59497e-14

>  <SCORE.INTRA.REPUL.0>
0.0198152

>  <SCORE.INTRA.VDW>
-4.72733e-12

>  <SCORE.INTRA.VDW.0>
2.93734

>  <SCORE.INTRA.norm>
-1.60045e-13

>  <SCORE.RESTR>
0

>  <SCORE.RESTR.CAVITY>
0

>  <SCORE.RESTR.norm>
0

>  <SCORE.SYSTEM>
-5.59049

>  <SCORE.SYSTEM.CONST>
0

>  <SCORE.SYSTEM.DIHEDRAL>
0.94165

>  <SCORE.SYSTEM.POLAR>
-1.72426

>  <SCORE.SYSTEM.VDW>
-0.198845

>  <SCORE.SYSTEM.norm>
-0.19966

>  <SCORE.heavy>
28

>  <SCORE.norm>
-0.560317

$$$$
Maybridge HTS 06299
  rDOCK(R)          3D
libRbt.so/2021.1/901 2021/07/19
 25 27  0  0  0  0  0  0  0  0999 V2000
   -2.8739    4.5095    8.8131 S   0  0  0  0  0  0
   -2.2295    3.2851    9.7734 N   0  0  0  0  0  0
   -2.7053    9.3801   12.4120 C   0  0  0  0  0  0
   -2.5251    3.3987   12.0627 N   0  0  0  0  0  0
   -2.9892    2.9013   10.8960 C   0  0  0  0  0  0
   -2.7893    5.9399    9.8911 C   0  0  0  0  0  0
   -4.2686    4.2163    8.5228 O   0  0  0  0  0  0
   -1.9471    4.7186    7.7102 O   0  0  0  0  0  0
   -2.7156    8.1779   11.5158 C   0  0  0  0  0  0
   -3.2343    3.0756   13.1730 C   0  0  0  0  0  0
   -3.8863    6.2244   10.7020 C   0  0  0  0  0  0
   -1.6696    6.7545    9.8640 C   0  0  0  0  0  0
   -1.6312    7.8798   10.6868 C   0  0  0  0  0  0
   -3.8402    7.3519   11.5238 C   0  0  0  0  0  0
   -2.8540    9.0145   13.7147 F   0  0  0  0  0  0
   -3.7435   10.2102   12.1185 F   0  0  0  0  0  0
   -1.5763   10.1394   12.3496 F   0  0  0  0  0  0
   -4.3804    2.2904   13.1590 C   0  0  0  0  0  0
   -4.8318    1.8030   11.9346 C   0  0  0  0  0  0
   -4.1239    2.1143   10.7755 C   0  0  0  0  0  0
   -2.7844    3.5695   14.4236 C   0  0  0  0  0  0
   -5.0766    1.9954   14.3523 C   0  0  0  0  0  0
   -3.4685    3.2785   15.6063 C   0  0  0  0  0  0
   -4.6145    2.4907   15.5711 C   0  0  0  0  0  0
   -1.3451    2.8485    9.5556 H   0  0  0  0  0  0
  1  2  1  0  0  0
  1  6  1  0  0  0
  1  7  2  0  0  0
  1  8  2  0  0  0
  2  5  1  0  0  0
  2 25  1  0  0  0
  3  9  1  0  0  0
  3 15  1  0  0  0
  3 16  1  0  0  0
  3 17  1  0  0  0
  4  5  1  0  0  0
  4 10  2  0  0  0
  5 20  2  0  0  0
  6 11  1  0  0  0
  6 12  2  0  0  0
  9 13  2  0  0  0
  9 14  1  0  0  0
 10 18  1  0  0  0
 10 21  1  0  0  0
 11 14  2  0  0  0
 12 13  1  0  0  0
 18 19  2  0  0  0
 18 22  1  0  0  0
 19 20  1  0  0  0
 21 23  2  0  0  0
 22 24  2  0  0  0
 23 24  1  0  0  0
M  END
>  <$CLUSTER>
861

>  <CHROM.0>
177.05214601,172.25555807,73.87696848

>  <CHROM.1>
-3.14629164,5.36211501,11.55050291,-2.48047786,1.32427112,0.79066825

>  <INDEX>
551739

>  <Name>
Maybridge HTS 06299

>  <RI>
-1.67511e+09

>  <Rbt.Current_Directory>
/aloy/home/acomajuncosa/PocketVec_v2/GitLab_repo

>  <Rbt.Executable>
rbdock ($Id: //depot/dev/client3/rdock/2021.1/src/exe/rbdock.cxx#4 $)

>  <Rbt.Library>
libRbt.so (2021.1, Build901 2021/07/19)

>  <Rbt.Parameter_File>
results/run_pocketvec/dock.prm

>  <Rbt.Receptor>
results/run_pocketvec/st_parameters.prm

>  <SCORE>
-8.75422

>  <SCORE.INTER>
-3.296

>  <SCORE.INTER.CONST>
1

>  <SCORE.INTER.POLAR>
-0.41164

>  <SCORE.INTER.REPUL>
0.000809251

>  <SCORE.INTER.ROT>
4

>  <SCORE.INTER.VDW>
-11.3005

>  <SCORE.INTER.norm>
-0.137333

>  <SCORE.INTRA>
-2.74447e-13

>  <SCORE.INTRA.DIHEDRAL>
-1.65201e-13

>  <SCORE.INTRA.DIHEDRAL.0>
15.3161

>  <SCORE.INTRA.POLAR>
0

>  <SCORE.INTRA.POLAR.0>
0

>  <SCORE.INTRA.REPUL>
0

>  <SCORE.INTRA.REPUL.0>
0

>  <SCORE.INTRA.VDW>
-1.91847e-13

>  <SCORE.INTRA.VDW.0>
-2.99832

>  <SCORE.INTRA.norm>
-1.14353e-14

>  <SCORE.RESTR>
0

>  <SCORE.RESTR.CAVITY>
0

>  <SCORE.RESTR.norm>
0

>  <SCORE.SYSTEM>
-5.45822

>  <SCORE.SYSTEM.CONST>
0

>  <SCORE.SYSTEM.DIHEDRAL>
1.28308

>  <SCORE.SYSTEM.POLAR>
-1.7457

>  <SCORE.SYSTEM.VDW>
-0.16437

>  <SCORE.SYSTEM.norm>
-0.227426

>  <SCORE.heavy>
24

>  <SCORE.norm>
-0.364759

$$$$
InterBioScreen STOCK5S-05837
  rDOCK(R)          3D
libRbt.so/2021.1/901 2021/07/19
 32 35  0  0  0  0  0  0  0  0999 V2000
   -4.2108   -0.8842   12.0905 C   0  0  0  0  0  0
   -4.9482    0.1574   10.0003 C   0  0  0  0  0  0
   -4.4851    0.3311   12.8188 C   0  0  0  0  0  0
   -4.4332   -0.9520   10.7851 C   0  0  0  0  0  0
   -4.9786    1.4182   12.0829 C   0  0  0  0  0  0
   -5.2002    1.3283   10.6958 O   0  0  0  0  0  0
   -5.0719    2.7682   14.0719 C   0  0  0  0  0  0
   -5.2721    2.6335   12.6992 C   0  0  0  0  0  0
   -4.2910    0.4753   14.1928 C   0  0  0  0  0  0
   -4.7139    5.7081   13.2353 C   0  0  0  0  0  0
   -5.3374    3.9510   14.7883 O   0  0  0  0  0  0
   -4.5831    1.6923   14.8168 C   0  0  0  0  0  0
   -1.8003    4.7013    6.8884 C   0  0  0  0  0  0
   -5.1433    6.6382   12.3323 N   0  0  0  0  0  0
   -5.8404    5.0611   14.0355 C   0  0  0  0  0  0
   -5.1482    0.0649    8.7924 O   0  0  0  0  0  0
   -2.0919    5.4445    8.1898 C   0  0  0  0  0  0
   -3.5312    5.3875   13.3829 O   0  0  0  0  0  0
   -2.4199    5.0189    5.8627 O   0  0  0  0  0  0
   -2.8188    6.7658    7.9103 C   0  0  0  0  0  0
   -2.9073    4.5651    9.1475 C   0  0  0  0  0  0
   -4.3174    1.8050   16.5233 Cl  0  0  0  0  0  0
   -3.6882   -2.1560   12.6370 C   0  0  0  0  0  0
   -4.2799    7.3862   11.4526 C   0  0  0  0  0  0
   -0.9566    3.7307    7.0494 O   0  5  0  0  0  0
   -4.1031   -2.2814   10.2258 C   0  0  0  0  0  0
   -3.1632    7.4955    9.2072 C   0  0  0  0  0  0
   -3.2448    5.3027   10.4159 C   0  0  0  0  0  0
   -3.9951    6.6203   10.1752 C   0  0  0  0  0  0
   -3.3223   -2.9291   11.3691 C   0  0  0  0  0  0
   -6.4634    6.0409   14.9934 C   0  0  0  0  0  0
   -6.1364    6.8149   12.2767 H   0  0  0  0  0  0
  1  3  1  0  0  0
  1  4  2  0  0  0
  1 23  1  0  0  0
  2  4  1  0  0  0
  2  6  1  0  0  0
  2 16  2  0  0  0
  3  5  1  0  0  0
  3  9  2  0  0  0
  4 26  1  0  0  0
  5  6  1  0  0  0
  5  8  2  0  0  0
  7  8  1  0  0  0
  7 11  1  0  0  0
  7 12  2  0  0  0
  9 12  1  0  0  0
 10 14  1  0  0  0
 10 15  1  0  0  0
 10 18  2  0  0  0
 11 15  1  0  0  0
 12 22  1  0  0  0
 13 17  1  0  0  0
 13 19  2  0  0  0
 13 25  1  0  0  0
 14 24  1  0  0  0
 14 32  1  0  0  0
 15 31  1  0  0  0
 17 20  1  0  0  0
 17 21  1  0  0  0
 20 27  1  0  0  0
 21 28  1  0  0  0
 23 30  1  0  0  0
 24 29  1  0  0  0
 26 30  1  0  0  0
 27 29  1  0  0  0
 28 29  1  0  0  0
M  END
>  <$CLUSTER>
556

>  <CHROM.0>
0.33200001,171.37535389,75.48030247

>  <CHROM.1>
-4.08806919,3.01623095,11.58034955,-2.35605650,1.26326553,0.02492827

>  <INDEX>
365065

>  <Name>
InterBioScreen STOCK5S-05837

>  <RI>
-1.67511e+09

>  <Rbt.Current_Directory>
/aloy/home/acomajuncosa/PocketVec_v2/GitLab_repo

>  <Rbt.Executable>
rbdock ($Id: //depot/dev/client3/rdock/2021.1/src/exe/rbdock.cxx#4 $)

>  <Rbt.Library>
libRbt.so (2021.1, Build901 2021/07/19)

>  <Rbt.Parameter_File>
results/run_pocketvec/dock.prm

>  <Rbt.Receptor>
results/run_pocketvec/st_parameters.prm

>  <SCORE>
13.886

>  <SCORE.INTER>
19.4767

>  <SCORE.INTER.CONST>
1

>  <SCORE.INTER.POLAR>
0

>  <SCORE.INTER.REPUL>
0

>  <SCORE.INTER.ROT>
6

>  <SCORE.INTER.VDW>
8.07673

>  <SCORE.INTER.norm>
0.628282

>  <SCORE.INTRA>
1.56719e-12

>  <SCORE.INTRA.DIHEDRAL>
1.26121e-13

>  <SCORE.INTRA.DIHEDRAL.0>
4.30279

>  <SCORE.INTRA.POLAR>
0

>  <SCORE.INTRA.POLAR.0>
0

>  <SCORE.INTRA.REPUL>
0

>  <SCORE.INTRA.REPUL.0>
0

>  <SCORE.INTRA.VDW>
1.50413e-12

>  <SCORE.INTRA.VDW.0>
-0.891276

>  <SCORE.INTRA.norm>
5.05545e-14

>  <SCORE.RESTR>
0

>  <SCORE.RESTR.CAVITY>
0

>  <SCORE.RESTR.norm>
0

>  <SCORE.SYSTEM>
-5.59072

>  <SCORE.SYSTEM.CONST>
0

>  <SCORE.SYSTEM.DIHEDRAL>
1.54144

>  <SCORE.SYSTEM.POLAR>
-1.75875

>  <SCORE.SYSTEM.VDW>
-0.38167

>  <SCORE.SYSTEM.norm>
-0.180346

>  <SCORE.heavy>
31

>  <SCORE.norm>
0.447936

$$$$
Life Chemicals F1608-0478
  rDOCK(R)          3D
libRbt.so/2021.1/901 2021/07/19
 30 33  0  0  0  0  0  0  0  0999 V2000
   -4.5873    4.9879   11.3805 C   0  0  0  0  0  0
   -4.7302    3.8152   12.1420 C   0  0  0  0  0  0
   -5.2962    3.9412   13.4476 C   0  0  0  0  0  0
   -3.9957    4.9985   10.0339 C   0  0  0  0  0  0
   -4.3586    2.5775   11.6335 N   0  0  0  0  0  0
   -4.9959    6.2163   11.8832 C   0  0  0  0  0  0
   -5.5085    6.2954   13.1132 N   0  3  0  0  0  0
   -5.6739    5.2270   13.9134 C   0  0  0  0  0  0
   -4.3318   -0.2930   11.3379 N   0  3  0  0  0  0
   -5.5428    2.8559   14.3212 C   0  0  0  0  0  0
   -4.7219    5.2953    9.0912 O   0  0  0  0  0  0
   -5.0806    2.0119   10.5085 C   0  0  0  0  0  0
   -3.2342    1.8560   12.2004 C   0  0  0  0  0  0
   -2.5677    4.6799    9.8174 C   0  0  0  0  0  0
   -6.2325    5.4077   15.1874 C   0  0  0  0  0  0
   -3.6590    0.3781   12.5226 C   0  0  0  0  0  0
   -5.5015    0.5348   10.8350 C   0  0  0  0  0  0
   -6.1016    3.0413   15.5897 C   0  0  0  0  0  0
   -6.4411    4.3168   16.0244 C   0  0  0  0  0  0
   -6.2569    1.8760   16.3132 O   0  0  0  0  0  0
   -4.7239   -1.7068   11.6353 C   0  0  0  0  0  0
   -1.6306    4.7875   10.8484 C   0  0  0  0  0  0
   -2.1559    4.2830    8.5408 C   0  0  0  0  0  0
   -6.8240    2.0075   17.6114 C   0  0  0  0  0  0
   -3.5180   -2.6241   11.7641 C   0  0  0  0  0  0
   -0.2891    4.4827   10.6045 C   0  0  0  0  0  0
   -0.8140    3.9795    8.3032 C   0  0  0  0  0  0
    0.1179    4.0775    9.3341 C   0  0  0  0  0  0
   -5.7861    7.2024   13.4597 H   0  0  0  0  0  0
   -3.6527   -0.3421   10.5924 H   0  0  0  0  0  0
  1  2  2  0  0  0
  1  4  1  0  0  0
  1  6  1  0  0  0
  2  3  1  0  0  0
  2  5  1  0  0  0
  3  8  2  0  0  0
  3 10  1  0  0  0
  4 11  2  0  0  0
  4 14  1  0  0  0
  5 12  1  0  0  0
  5 13  1  0  0  0
  6  7  2  0  0  0
  7  8  1  0  0  0
  7 29  1  0  0  0
  8 15  1  0  0  0
  9 16  1  0  0  0
  9 17  1  0  0  0
  9 21  1  0  0  0
  9 30  1  0  0  0
 10 18  2  0  0  0
 12 17  1  0  0  0
 13 16  1  0  0  0
 14 22  2  0  0  0
 14 23  1  0  0  0
 15 19  2  0  0  0
 18 19  1  0  0  0
 18 20  1  0  0  0
 20 24  1  0  0  0
 21 25  1  0  0  0
 22 26  1  0  0  0
 23 27  2  0  0  0
 26 28  2  0  0  0
 27 28  1  0  0  0
M  END
>  <$CLUSTER>
447

>  <CHROM.0>
1.83964729,171.86241931,74.06953130

>  <CHROM.1>
-4.26781035,3.10039493,12.16362805,0.18853051,0.96361534,-0.00878202

>  <INDEX>
295573

>  <Name>
Life Chemicals F1608-0478

>  <RI>
-1.67511e+09

>  <Rbt.Current_Directory>
/aloy/home/acomajuncosa/PocketVec_v2/GitLab_repo

>  <Rbt.Executable>
rbdock ($Id: //depot/dev/client3/rdock/2021.1/src/exe/rbdock.cxx#4 $)

>  <Rbt.Library>
libRbt.so (2021.1, Build901 2021/07/19)

>  <Rbt.Parameter_File>
results/run_pocketvec/dock.prm

>  <Rbt.Receptor>
results/run_pocketvec/st_parameters.prm

>  <SCORE>
-13.5036

>  <SCORE.INTER>
-7.89251

>  <SCORE.INTER.CONST>
1

>  <SCORE.INTER.POLAR>
0

>  <SCORE.INTER.REPUL>
0.0385409

>  <SCORE.INTER.ROT>
5

>  <SCORE.INTER.VDW>
-18.4852

>  <SCORE.INTER.norm>
-0.281875

>  <SCORE.INTRA>
-8.98009e-12

>  <SCORE.INTRA.DIHEDRAL>
7.63833e-13

>  <SCORE.INTRA.DIHEDRAL.0>
23.7389

>  <SCORE.INTRA.POLAR>
0

>  <SCORE.INTRA.POLAR.0>
0

>  <SCORE.INTRA.REPUL>
0

>  <SCORE.INTRA.REPUL.0>
0

>  <SCORE.INTRA.VDW>
-9.36201e-12

>  <SCORE.INTRA.VDW.0>
-0.100003

>  <SCORE.INTRA.norm>
-3.20718e-13

>  <SCORE.RESTR>
0

>  <SCORE.RESTR.CAVITY>
0

>  <SCORE.RESTR.norm>
0

>  <SCORE.SYSTEM>
-5.6111

>  <SCORE.SYSTEM.CONST>
0

>  <SCORE.SYSTEM.DIHEDRAL>
1.32061

>  <SCORE.SYSTEM.POLAR>
-1.74728

>  <SCORE.SYSTEM.VDW>
-0.330642

>  <SCORE.SYSTEM.norm>
-0.200396

>  <SCORE.heavy>
28

>  <SCORE.norm>
-0.482272

$$$$
Chemdiv 1416-0529
  rDOCK(R)          3D
libRbt.so/2021.1/901 2021/07/19
 31 33  0  0  0  0  0  0  0  0999 V2000
   -4.8742    1.6194   12.2747 C   0  0  0  0  0  0
   -5.3982    2.4840   13.2074 C   0  0  0  0  0  0
   -4.5168    0.3094   12.6266 C   0  0  0  0  0  0
   -4.7574    2.0103   10.8038 C   0  0  0  0  0  0
   -2.3256    7.5514    6.8499 C   0  0  0  0  0  0
   -2.7528    6.9729    5.6529 C   0  0  0  0  0  0
   -2.5744    6.9031    8.0622 C   0  0  0  0  0  0
   -3.2531    5.6788    8.0641 C   0  0  0  0  0  0
   -4.6643   -0.1069   13.9524 C   0  0  0  0  0  0
   -4.1374    3.8634    9.4218 N   0  0  0  0  0  0
   -5.5453    2.0665   14.5328 C   0  0  0  0  0  0
   -5.1789    0.7738   14.9036 C   0  0  0  0  0  0
   -2.4951    7.6441    4.3961 N   0  0  0  0  0  0
   -4.2852    3.3866   10.6861 N   0  0  0  0  0  0
   -5.0297    1.2555    9.9102 O   0  0  0  0  0  0
   -3.6780    5.1046    6.8792 C   0  0  0  0  0  0
   -3.4287    5.7518    5.6663 C   0  0  0  0  0  0
   -3.5110    5.0013    9.3760 C   0  0  0  0  0  0
   -3.9950   -0.5565   11.7051 O   0  0  0  0  0  0
   -2.1503    7.4766    9.2438 O   0  0  0  0  0  0
   -3.0088    7.1301    3.1186 C   0  0  0  0  0  0
   -1.7029    8.8802    4.3214 C   0  0  0  0  0  0
   -6.0697    2.9503   15.5135 C   0  0  0  0  0  0
   -5.3406    0.3570   16.2491 C   0  0  0  0  0  0
   -2.0516    6.1128    2.5149 C   0  0  0  0  0  0
   -2.5811   10.1048    4.5373 C   0  0  0  0  0  0
   -5.8576    1.2363   17.2015 C   0  0  0  0  0  0
   -6.2216    2.5293   16.8341 C   0  0  0  0  0  0
   -4.0800    3.9524   11.4979 H   0  0  0  0  0  0
   -3.7583   -1.4208   12.0494 H   0  0  0  0  0  0
   -2.3579    6.9751   10.0355 H   0  0  0  0  0  0
  1  2  1  0  0  0
  1  3  2  0  0  0
  1  4  1  0  0  0
  2 11  2  0  0  0
  3  9  1  0  0  0
  3 19  1  0  0  0
  4 14  1  0  0  0
  4 15  2  0  0  0
  5  6  1  0  0  0
  5  7  2  0  0  0
  6 13  1  0  0  0
  6 17  2  0  0  0
  7  8  1  0  0  0
  7 20  1  0  0  0
  8 16  2  0  0  0
  8 18  1  0  0  0
  9 12  2  0  0  0
 10 14  1  0  0  0
 10 18  2  0  0  0
 11 12  1  0  0  0
 11 23  1  0  0  0
 12 24  1  0  0  0
 13 21  1  0  0  0
 13 22  1  0  0  0
 14 29  1  0  0  0
 16 17  1  0  0  0
 19 30  1  0  0  0
 20 31  1  0  0  0
 21 25  1  0  0  0
 22 26  1  0  0  0
 23 28  2  0  0  0
 24 27  2  0  0  0
 27 28  1  0  0  0
M  END
>  <$CLUSTER>
631

>  <CHROM.0>
-1.19921609,171.16171138,77.01093721

>  <CHROM.1>
-3.93398679,4.13703820,9.82923376,-3.12929996,1.33398798,0.56596177

>  <INDEX>
14047

>  <Name>
Chemdiv 1416-0529

>  <RI>
-1.67511e+09

>  <Rbt.Current_Directory>
/aloy/home/acomajuncosa/PocketVec_v2/GitLab_repo

>  <Rbt.Executable>
rbdock ($Id: //depot/dev/client3/rdock/2021.1/src/exe/rbdock.cxx#4 $)

>  <Rbt.Library>
libRbt.so (2021.1, Build901 2021/07/19)

>  <Rbt.Parameter_File>
results/run_pocketvec/dock.prm

>  <Rbt.Receptor>
results/run_pocketvec/st_parameters.prm

>  <SCORE>
-14.8512

>  <SCORE.INTER>
-9.28058

>  <SCORE.INTER.CONST>
1

>  <SCORE.INTER.POLAR>
-1.06334

>  <SCORE.INTER.REPUL>
0

>  <SCORE.INTER.ROT>
6

>  <SCORE.INTER.VDW>
-17.0652

>  <SCORE.INTER.norm>
-0.331449

>  <SCORE.INTRA>
7.03881e-13

>  <SCORE.INTRA.DIHEDRAL>
5.13367e-13

>  <SCORE.INTRA.DIHEDRAL.0>
10.385

>  <SCORE.INTRA.POLAR>
0

>  <SCORE.INTRA.POLAR.0>
0

>  <SCORE.INTRA.REPUL>
0

>  <SCORE.INTRA.REPUL.0>
0

>  <SCORE.INTRA.VDW>
4.47198e-13

>  <SCORE.INTRA.VDW.0>
1.49694

>  <SCORE.INTRA.norm>
2.51386e-14

>  <SCORE.RESTR>
0

>  <SCORE.RESTR.CAVITY>
0

>  <SCORE.RESTR.norm>
0

>  <SCORE.SYSTEM>
-5.57061

>  <SCORE.SYSTEM.CONST>
0

>  <SCORE.SYSTEM.DIHEDRAL>
1.77892

>  <SCORE.SYSTEM.POLAR>
-1.77097

>  <SCORE.SYSTEM.VDW>
-0.438773

>  <SCORE.SYSTEM.norm>
-0.19895

>  <SCORE.heavy>
28

>  <SCORE.norm>
-0.5304

$$$$
Chemical Block A3577/0151844
  rDOCK(R)          3D
libRbt.so/2021.1/901 2021/07/19
 25 27  0  0  0  0  0  0  0  0999 V2000
   -5.0452    0.3941   16.2846 S   0  0  0  0  0  0
   -3.1761    5.6359   12.3772 N   0  0  0  0  0  0
   -1.5159    7.3335   11.7608 C   0  0  0  0  0  0
   -0.5365    6.4938   12.2382 N   0  0  0  0  0  0
   -4.3592    5.4436   13.0988 C   0  0  0  0  0  0
   -2.9626    6.9315   11.6970 C   0  0  0  0  0  0
   -0.8893    8.5132   11.4041 C   0  0  0  0  0  0
    0.6867    7.0975   12.1718 C   0  0  0  0  0  0
    0.4969    8.3618   11.6583 C   0  0  0  0  0  0
   -2.1167    4.6264   12.2059 C   0  0  0  0  0  0
   -0.7983    5.1603   12.7466 C   0  0  0  0  0  0
   -4.8516    1.8855   15.3572 C   0  0  0  0  0  0
   -6.3174    0.7426   17.3148 N   0  0  0  0  0  0
   -5.4887   -0.6557   15.3816 O   0  0  0  0  0  0
   -3.8609    0.1953   17.1003 O   0  0  0  0  0  0
   -4.5085    4.2032   13.8711 C   0  0  0  0  0  0
   -5.2966    6.2349   13.1525 O   0  0  0  0  0  0
   -5.5732    2.0675   14.1747 C   0  0  0  0  0  0
   -3.9663    2.8701   15.7997 C   0  0  0  0  0  0
   -5.4088    3.2332   13.4280 C   0  0  0  0  0  0
   -3.7955    4.0387   15.0592 C   0  0  0  0  0  0
   -3.4637    6.8671   10.2523 C   0  0  0  0  0  0
    1.8820    6.5046   12.5641 C   0  0  0  0  0  0
   -6.0812    1.7352   18.3972 C   0  0  0  0  0  0
   -7.6711    0.9025   16.7196 C   0  0  0  0  0  0
  1 12  1  0  0  0
  1 13  1  0  0  0
  1 14  2  0  0  0
  1 15  2  0  0  0
  2  5  1  0  0  0
  2  6  1  0  0  0
  2 10  1  0  0  0
  3  4  1  0  0  0
  3  6  1  0  0  0
  3  7  2  0  0  0
  4  8  1  0  0  0
  4 11  1  0  0  0
  5 16  1  0  0  0
  5 17  2  0  0  0
  6 22  1  0  0  0
  7  9  1  0  0  0
  8  9  2  0  0  0
  8 23  1  0  0  0
 10 11  1  0  0  0
 12 18  2  0  0  0
 12 19  1  0  0  0
 13 24  1  0  0  0
 13 25  1  0  0  0
 16 20  2  0  0  0
 16 21  1  0  0  0
 18 20  1  0  0  0
 19 21  2  0  0  0
M  END
>  <$CLUSTER>
182

>  <CHROM.0>
0.28597637,173.16947840,73.98311688

>  <CHROM.1>
-3.51477104,3.99499300,14.02653526,-2.12194786,-0.08757481,-0.69586609

>  <INDEX>
116660

>  <Name>
Chemical Block A3577/0151844

>  <RI>
-1.67511e+09

>  <Rbt.Current_Directory>
/aloy/home/acomajuncosa/PocketVec_v2/GitLab_repo

>  <Rbt.Executable>
rbdock ($Id: //depot/dev/client3/rdock/2021.1/src/exe/rbdock.cxx#4 $)

>  <Rbt.Library>
libRbt.so (2021.1, Build901 2021/07/19)

>  <Rbt.Parameter_File>
results/run_pocketvec/dock.prm

>  <Rbt.Receptor>
results/run_pocketvec/st_parameters.prm

>  <SCORE>
-14.3893

>  <SCORE.INTER>
-8.784

>  <SCORE.INTER.CONST>
1

>  <SCORE.INTER.POLAR>
-1.22187

>  <SCORE.INTER.REPUL>
0.279945

>  <SCORE.INTER.ROT>
3

>  <SCORE.INTER.VDW>
-14.4294

>  <SCORE.INTER.norm>
-0.35136

>  <SCORE.INTRA>
-7.0921e-13

>  <SCORE.INTRA.DIHEDRAL>
2.25597e-13

>  <SCORE.INTRA.DIHEDRAL.0>
13.0624

>  <SCORE.INTRA.POLAR>
0

>  <SCORE.INTRA.POLAR.0>
0

>  <SCORE.INTRA.REPUL>
0

>  <SCORE.INTRA.REPUL.0>
0

>  <SCORE.INTRA.VDW>
-8.22009e-13

>  <SCORE.INTRA.VDW.0>
-1.87925

>  <SCORE.INTRA.norm>
-2.83684e-14

>  <SCORE.RESTR>
0

>  <SCORE.RESTR.CAVITY>
0

>  <SCORE.RESTR.norm>
0

>  <SCORE.SYSTEM>
-5.60527

>  <SCORE.SYSTEM.CONST>
0

>  <SCORE.SYSTEM.DIHEDRAL>
1.21485

>  <SCORE.SYSTEM.POLAR>
-1.74657

>  <SCORE.SYSTEM.VDW>
-0.274338

>  <SCORE.SYSTEM.norm>
-0.224211

>  <SCORE.heavy>
25

>  <SCORE.norm>
-0.575571

$$$$
Comgenex CGX-0740668
  rDOCK(R)          3D
libRbt.so/2021.1/901 2021/07/19
 31 34  0  0  0  0  0  0  0  0999 V2000
    0.6070    5.9073    9.6143 C   0  0  0  0  0  0
   -0.0302    6.5816    8.4249 C   0  0  0  0  0  0
    1.9768    5.6526    9.6820 C   0  0  0  0  0  0
   -2.0898    4.3383   12.7700 C   0  0  0  0  0  0
    0.1406    5.9961    7.2538 N   0  0  0  0  0  0
    2.9294    6.1483    8.8001 N   0  0  0  0  0  0
   -0.3153    5.4599   10.5639 C   0  0  0  0  0  0
   -0.7131    4.1816   12.6460 N   0  0  0  0  0  0
   -2.5681    3.6893   13.8984 N   0  0  0  0  0  0
    2.3837    4.8559   10.7745 C   0  0  0  0  0  0
   -0.6674    7.6247    8.5932 O   0  0  0  0  0  0
    0.1333    4.6989   11.6369 C   0  0  0  0  0  0
   -2.8415    4.9535   12.0183 O   0  0  0  0  0  0
   -3.8751    3.5738   14.4249 C   0  0  0  0  0  0
   -4.9894    4.1595   13.8146 C   0  0  0  0  0  0
    1.4819    4.3872   11.7368 C   0  0  0  0  0  0
   -6.2604    4.0128   14.3787 C   0  0  0  0  0  0
   -7.3665    4.5459   13.8505 F   0  0  0  0  0  0
    0.8571    4.7759    6.8947 C   0  0  0  0  0  0
   -0.3965    6.4933    5.9902 C   0  0  0  0  0  0
    4.0716    5.3296    8.4204 C   0  0  0  0  0  0
    2.8528    7.5001    8.2663 C   0  0  0  0  0  0
   -5.3302    2.6951   16.1673 C   0  0  0  0  0  0
   -4.0601    2.8393   15.6070 C   0  0  0  0  0  0
   -6.4319    3.2830   15.5524 C   0  0  0  0  0  0
   -0.8686    5.2403    5.2752 C   0  0  0  0  0  0
    3.4273    7.1615    6.8350 C   0  0  0  0  0  0
    4.1707    5.8390    6.9298 C   0  0  0  0  0  0
   -0.0430    4.1102    5.8702 C   0  0  0  0  0  0
   -0.2630    3.6321   13.3631 H   0  0  0  0  0  0
   -1.8581    3.2164   14.4396 H   0  0  0  0  0  0
  1  2  1  0  0  0
  1  3  2  0  0  0
  1  7  1  0  0  0
  2  5  1  0  0  0
  2 11  2  0  0  0
  3  6  1  0  0  0
  3 10  1  0  0  0
  4  8  1  0  0  0
  4  9  1  0  0  0
  4 13  2  0  0  0
  5 19  1  0  0  0
  5 20  1  0  0  0
  6 21  1  0  0  0
  6 22  1  0  0  0
  7 12  2  0  0  0
  8 12  1  0  0  0
  8 30  1  0  0  0
  9 14  1  0  0  0
  9 31  1  0  0  0
 10 16  2  0  0  0
 12 16  1  0  0  0
 14 15  2  0  0  0
 14 24  1  0  0  0
 15 17  1  0  0  0
 17 18  1  0  0  0
 17 25  2  0  0  0
 19 29  1  0  0  0
 20 26  1  0  0  0
 21 28  1  0  0  0
 22 27  1  0  0  0
 23 24  2  0  0  0
 23 25  1  0  0  0
 26 29  1  0  0  0
 27 28  1  0  0  0
M  END
>  <$CLUSTER>
386

>  <CHROM.0>
-0.14856154,171.18039674,-51.63253341

>  <CHROM.1>
-0.86539144,5.05553340,10.54437298,-0.81249967,0.05092164,1.83830234

>  <INDEX>
240716

>  <Name>
Comgenex CGX-0740668

>  <RI>
-1.67511e+09

>  <Rbt.Current_Directory>
/aloy/home/acomajuncosa/PocketVec_v2/GitLab_repo

>  <Rbt.Executable>
rbdock ($Id: //depot/dev/client3/rdock/2021.1/src/exe/rbdock.cxx#4 $)

>  <Rbt.Library>
libRbt.so (2021.1, Build901 2021/07/19)

>  <Rbt.Parameter_File>
results/run_pocketvec/dock.prm

>  <Rbt.Receptor>
results/run_pocketvec/st_parameters.prm

>  <SCORE>
-8.35141

>  <SCORE.INTER>
-6.30343

>  <SCORE.INTER.CONST>
1

>  <SCORE.INTER.POLAR>
-1.53492

>  <SCORE.INTER.REPUL>
0

>  <SCORE.INTER.ROT>
4

>  <SCORE.INTER.VDW>
-10.4847

>  <SCORE.INTER.norm>
-0.21736

>  <SCORE.INTRA>
1.28875e-12

>  <SCORE.INTRA.DIHEDRAL>
1.86517e-13

>  <SCORE.INTRA.DIHEDRAL.0>
14.6043

>  <SCORE.INTRA.POLAR>
0

>  <SCORE.INTRA.POLAR.0>
0

>  <SCORE.INTRA.REPUL>
0

>  <SCORE.INTRA.REPUL.0>
0

>  <SCORE.INTRA.VDW>
1.19549e-12

>  <SCORE.INTRA.VDW.0>
-2.25519

>  <SCORE.INTRA.norm>
4.44395e-14

>  <SCORE.RESTR>
0

>  <SCORE.RESTR.CAVITY>
0

>  <SCORE.RESTR.norm>
0

>  <SCORE.SYSTEM>
-2.04798

>  <SCORE.SYSTEM.CONST>
0

>  <SCORE.SYSTEM.DIHEDRAL>
0.784212

>  <SCORE.SYSTEM.POLAR>
-0.994987

>  <SCORE.SYSTEM.REPUL>
0.0528009

>  <SCORE.SYSTEM.VDW>
0.678863

>  <SCORE.SYSTEM.norm>
-0.0706201

>  <SCORE.heavy>
29

>  <SCORE.norm>
-0.28798

$$$$
Asinex ASN 06745065
  rDOCK(R)          3D
libRbt.so/2021.1/901 2021/07/19
 23 25  0  0  0  0  0  0  0  0999 V2000
    1.3863    4.3313   10.5387 C   0  0  0  0  0  0
    2.2755    4.8306   11.4426 N   0  0  0  0  0  0
    0.7094    3.3524   11.2442 C   0  0  0  0  0  0
    2.1643    4.2092   12.6330 N   0  0  0  0  0  0
    1.2017    3.2973   12.5223 N   0  0  0  0  0  0
    1.1986    4.6879    9.2603 N   0  0  0  0  0  0
   -0.2974    2.6305   10.5821 C   0  0  0  0  0  0
   -0.5225    2.9649    9.2738 N   0  0  0  0  0  0
    0.2191    3.9472    8.7062 C   0  0  0  0  0  0
    3.2474    5.8830   11.2526 C   0  0  0  0  0  0
   -1.0121    1.6400   11.2309 N   0  0  0  0  0  0
    4.6018    5.3437   10.8289 C   0  0  0  0  0  0
   -0.0921    4.2693    7.2339 C   0  0  0  0  0  0
   -2.0475    0.8992   10.5430 C   0  0  0  0  0  0
    4.9842    5.3519    9.4797 C   0  0  0  0  0  0
    5.4803    4.8051   11.7819 C   0  0  0  0  0  0
   -2.6673   -0.1220   11.4830 C   0  0  0  0  0  0
   -3.7607   -0.9327   10.7830 C   0  0  0  0  0  0
   -4.3824   -1.9553   11.7222 C   0  0  0  0  0  0
    6.2318    4.8516    9.0938 C   0  0  0  0  0  0
    6.7273    4.3059   11.3953 C   0  0  0  0  0  0
    7.1031    4.3322   10.0520 C   0  0  0  0  0  0
   -0.8086    1.4308   12.1980 H   0  0  0  0  0  0
  1  2  1  0  0  0
  1  3  2  0  0  0
  1  6  1  0  0  0
  2  4  1  0  0  0
  2 10  1  0  0  0
  3  5  1  0  0  0
  3  7  1  0  0  0
  4  5  2  0  0  0
  6  9  2  0  0  0
  7  8  2  0  0  0
  7 11  1  0  0  0
  8  9  1  0  0  0
  9 13  1  0  0  0
 10 12  1  0  0  0
 11 14  1  0  0  0
 11 23  1  0  0  0
 12 15  2  0  0  0
 12 16  1  0  0  0
 14 17  1  0  0  0
 15 20  1  0  0  0
 16 21  2  0  0  0
 17 18  1  0  0  0
 18 19  1  0  0  0
 20 22  2  0  0  0
 21 22  1  0  0  0
M  END
>  <$CLUSTER>
270

>  <CHROM.0>
176.26515038,172.26831815,74.54240123

>  <CHROM.1>
1.38276179,3.24881318,10.60364768,0.31456647,-0.45144152,-1.01296997

>  <INDEX>
163325

>  <Name>
Asinex ASN 06745065

>  <RI>
-1.67511e+09

>  <Rbt.Current_Directory>
/aloy/home/acomajuncosa/PocketVec_v2/GitLab_repo

>  <Rbt.Executable>
rbdock ($Id: //depot/dev/client3/rdock/2021.1/src/exe/rbdock.cxx#4 $)

>  <Rbt.Library>
libRbt.so (2021.1, Build901 2021/07/19)

>  <Rbt.Parameter_File>
results/run_pocketvec/dock.prm

>  <Rbt.Receptor>
results/run_pocketvec/st_parameters.prm

>  <SCORE>
-12.9376

>  <SCORE.INTER>
-7.49561

>  <SCORE.INTER.CONST>
1

>  <SCORE.INTER.POLAR>
0

>  <SCORE.INTER.REPUL>
0.0232781

>  <SCORE.INTER.ROT>
6

>  <SCORE.INTER.VDW>
-19.012

>  <SCORE.INTER.norm>
-0.340709

>  <SCORE.INTRA>
-7.28972e-13

>  <SCORE.INTRA.DIHEDRAL>
-2.17604e-13

>  <SCORE.INTRA.DIHEDRAL.0>
5.53769

>  <SCORE.INTRA.POLAR>
0

>  <SCORE.INTRA.POLAR.0>
0

>  <SCORE.INTRA.REPUL>
0

>  <SCORE.INTRA.REPUL.0>
0

>  <SCORE.INTRA.VDW>
-6.20171e-13

>  <SCORE.INTRA.VDW.0>
-1.266

>  <SCORE.INTRA.norm>
-3.31351e-14

>  <SCORE.RESTR>
0

>  <SCORE.RESTR.CAVITY>
0

>  <SCORE.RESTR.norm>
0

>  <SCORE.SYSTEM>
-5.44196

>  <SCORE.SYSTEM.CONST>
0

>  <SCORE.SYSTEM.DIHEDRAL>
1.37554

>  <SCORE.SYSTEM.POLAR>
-1.75115

>  <SCORE.SYSTEM.VDW>
-0.175823

>  <SCORE.SYSTEM.norm>
-0.247362

>  <SCORE.heavy>
22

>  <SCORE.norm>
-0.588071

$$$$
Life Chemicals F0497-0082
  rDOCK(R)          3D
libRbt.so/2021.1/901 2021/07/19
 32 35  0  0  0  0  0  0  0  0999 V2000
   -3.5934    3.6815   11.5169 C   0  0  0  0  0  0
   -4.2829    3.2464   14.2146 C   0  0  0  0  0  0
   -5.0122    4.1427   13.4794 N   0  0  0  0  0  0
   -4.7457    4.5080   12.0842 C   0  0  0  0  0  0
   -2.9171    2.7873   12.2758 C   0  0  0  0  0  0
   -3.2954    3.8822   10.0819 C   0  0  0  0  0  0
   -3.2558    2.6051   13.6151 N   0  0  0  0  0  0
   -4.7788    3.1825   15.4291 N   0  0  0  0  0  0
   -4.5023    6.0046   11.9731 C   0  0  0  0  0  0
   -6.0298    4.6554   14.1922 N   0  0  0  0  0  0
   -5.8353    4.0502   15.3680 C   0  0  0  0  0  0
   -2.0437    4.4011    9.8404 N   0  0  0  0  0  0
   -5.3475    6.7911   11.1757 C   0  0  0  0  0  0
   -5.1332    8.1648   11.0532 C   0  0  0  0  0  0
   -4.1315    3.6490    9.2175 O   0  0  0  0  0  0
   -3.4337    6.6275   12.6413 C   0  0  0  0  0  0
   -4.0712    8.7691   11.7228 C   0  0  0  0  0  0
   -3.2223    8.0019   12.5164 C   0  0  0  0  0  0
   -1.4098    4.7287    8.6303 C   0  0  0  0  0  0
   -1.8124    1.8955   11.7753 C   0  0  0  0  0  0
   -5.9238    9.0007   10.2890 O   0  0  0  0  0  0
   -0.0322    5.4319    6.2836 C   0  0  0  0  0  0
   -2.0207    4.5878    7.3807 C   0  0  0  0  0  0
   -0.0989    5.2270    8.6882 C   0  0  0  0  0  0
   -3.9382   10.1295   11.5400 O   0  0  0  0  0  0
    0.5853    5.5763    7.5225 C   0  0  0  0  0  0
   -1.3323    4.9378    6.2136 C   0  0  0  0  0  0
    0.6983    5.8039    5.0357 C   0  0  0  0  0  0
   -7.0179    8.4165    9.5902 C   0  0  0  0  0  0
   -2.8652   10.7790   12.2086 C   0  0  0  0  0  0
   -2.7059    1.9613   14.1660 H   0  0  0  0  0  0
   -1.4906    4.5746   10.6678 H   0  0  0  0  0  0
  1  4  1  0  0  0
  1  5  2  0  0  0
  1  6  1  0  0  0
  2  3  1  0  0  0
  2  7  1  0  0  0
  2  8  2  0  0  0
  3  4  1  0  0  0
  3 10  1  0  0  0
  4  9  1  0  0  0
  5  7  1  0  0  0
  5 20  1  0  0  0
  6 12  1  0  0  0
  6 15  2  0  0  0
  7 31  1  0  0  0
  8 11  1  0  0  0
  9 13  2  0  0  0
  9 16  1  0  0  0
 10 11  2  0  0  0
 12 19  1  0  0  0
 12 32  1  0  0  0
 13 14  1  0  0  0
 14 17  2  0  0  0
 14 21  1  0  0  0
 16 18  2  0  0  0
 17 18  1  0  0  0
 17 25  1  0  0  0
 19 23  1  0  0  0
 19 24  2  0  0  0
 21 29  1  0  0  0
 22 26  2  0  0  0
 22 27  1  0  0  0
 22 28  1  0  0  0
 23 27  2  0  0  0
 24 26  1  0  0  0
 25 30  1  0  0  0
M  END
>  <$CLUSTER>
737

>  <CHROM.0>
177.01283607,172.85728984,73.79235276

>  <CHROM.1>
-3.38335786,5.56699005,10.91864578,-2.71785284,0.92405686,-0.47485175

>  <INDEX>
271154

>  <Name>
Life Chemicals F0497-0082

>  <RI>
-1.67511e+09

>  <Rbt.Current_Directory>
/aloy/home/acomajuncosa/PocketVec_v2/GitLab_repo

>  <Rbt.Executable>
rbdock ($Id: //depot/dev/client3/rdock/2021.1/src/exe/rbdock.cxx#4 $)

>  <Rbt.Library>
libRbt.so (2021.1, Build901 2021/07/19)

>  <Rbt.Parameter_File>
results/run_pocketvec/dock.prm

>  <Rbt.Receptor>
results/run_pocketvec/st_parameters.prm

>  <SCORE>
-11.7815

>  <SCORE.INTER>
-6.32643

>  <SCORE.INTER.CONST>
1

>  <SCORE.INTER.POLAR>
-1.35601

>  <SCORE.INTER.REPUL>
0

>  <SCORE.INTER.ROT>
5

>  <SCORE.INTER.VDW>
-12.116

>  <SCORE.INTER.norm>
-0.210881

>  <SCORE.INTRA>
-4.80084e-12

>  <SCORE.INTRA.DIHEDRAL>
-7.10543e-15

>  <SCORE.INTRA.DIHEDRAL.0>
9.75028

>  <SCORE.INTRA.POLAR>
0

>  <SCORE.INTRA.POLAR.0>
0

>  <SCORE.INTRA.REPUL>
4.68479e-14

>  <SCORE.INTRA.REPUL.0>
0.0193329

>  <SCORE.INTRA.VDW>
-5.03153e-12

>  <SCORE.INTRA.VDW.0>
1.45409

>  <SCORE.INTRA.norm>
-1.60028e-13

>  <SCORE.RESTR>
0

>  <SCORE.RESTR.CAVITY>
0

>  <SCORE.RESTR.norm>
0

>  <SCORE.SYSTEM>
-5.45512

>  <SCORE.SYSTEM.CONST>
0

>  <SCORE.SYSTEM.DIHEDRAL>
1.23048

>  <SCORE.SYSTEM.POLAR>
-1.74501

>  <SCORE.SYSTEM.VDW>
-0.137338

>  <SCORE.SYSTEM.norm>
-0.181837

>  <SCORE.heavy>
30

>  <SCORE.norm>
-0.392718

$$$$
InnovaPharm STT-00192300
  rDOCK(R)          3D
libRbt.so/2021.1/901 2021/07/19
 29 31  0  0  0  0  0  0  0  0999 V2000
   -4.3239    6.9992    8.7226 C   0  0  0  0  0  0
   -3.7580    8.1190    9.3781 C   0  0  0  0  0  0
   -5.1444    7.2257    7.6022 C   0  0  0  0  0  0
   -4.0546    5.6263    9.1988 C   0  0  0  0  0  0
   -5.3521    8.5324    7.1855 C   0  0  0  0  0  0
   -4.8137    9.6134    7.7857 N   0  0  0  0  0  0
   -2.8773    4.9372    8.8587 C   0  0  0  0  0  0
   -4.0196    9.3955    8.8606 C   0  0  0  0  0  0
   -2.6250    3.6575    9.3785 C   0  0  0  0  0  0
   -5.7648    6.1594    6.8737 C   0  0  0  0  0  0
   -6.2658    5.2954    6.2830 N   0  0  0  0  0  0
   -2.8434    7.9570   10.5691 C   0  0  0  0  0  0
   -4.9926    4.9712   10.0140 C   0  0  0  0  0  0
   -2.5516    9.2409   11.3192 N   0  3  0  0  0  0
   -3.4704   10.6316    9.5211 C   0  0  0  0  0  0
   -3.5796    3.0045   10.1704 C   0  0  0  0  0  0
   -4.7641    3.6738   10.4858 C   0  0  0  0  0  0
   -6.1665    8.7752    6.0732 N   0  0  0  0  0  0
   -2.2349   10.3626   10.3670 C   0  0  0  0  0  0
   -1.9488    5.5749    8.0709 O   0  0  0  0  0  0
   -1.4537    3.0081    9.0732 O   0  0  0  0  0  0
   -3.2547    1.7389   10.5839 O   0  0  0  0  0  0
   -1.4855    9.0545   12.3607 C   0  0  0  0  0  0
   -0.4304    3.3745    9.9999 C   0  0  0  0  0  0
   -1.9146    5.0163    6.7572 C   0  0  0  0  0  0
   -4.2166    1.0446   11.3691 C   0  0  0  0  0  0
   -3.3895    9.5018   11.8196 H   0  0  0  0  0  0
   -6.3238    9.7224    5.7603 H   0  0  0  0  0  0
   -6.5970    8.0034    5.5837 H   0  0  0  0  0  0
  1  2  1  0  0  0
  1  3  2  0  0  0
  1  4  1  0  0  0
  2  8  2  0  0  0
  2 12  1  0  0  0
  3  5  1  0  0  0
  3 10  1  0  0  0
  4  7  2  0  0  0
  4 13  1  0  0  0
  5  6  2  0  0  0
  5 18  1  0  0  0
  6  8  1  0  0  0
  7  9  1  0  0  0
  7 20  1  0  0  0
  8 15  1  0  0  0
  9 16  2  0  0  0
  9 21  1  0  0  0
 10 11  3  0  0  0
 12 14  1  0  0  0
 13 17  2  0  0  0
 14 19  1  0  0  0
 14 23  1  0  0  0
 14 27  1  0  0  0
 15 19  1  0  0  0
 16 17  1  0  0  0
 16 22  1  0  0  0
 18 28  1  0  0  0
 18 29  1  0  0  0
 20 25  1  0  0  0
 21 24  1  0  0  0
 22 26  1  0  0  0
M  END
>  <$CLUSTER>
607

>  <CHROM.0>
176.40829451,171.99963015,73.89037357

>  <CHROM.1>
-3.56376377,6.23204949,9.13340082,1.81022864,-0.85811071,0.01726465

>  <INDEX>
401219

>  <Name>
InnovaPharm STT-00192300

>  <RI>
-1.67511e+09

>  <Rbt.Current_Directory>
/aloy/home/acomajuncosa/PocketVec_v2/GitLab_repo

>  <Rbt.Executable>
rbdock ($Id: //depot/dev/client3/rdock/2021.1/src/exe/rbdock.cxx#4 $)

>  <Rbt.Library>
libRbt.so (2021.1, Build901 2021/07/19)

>  <Rbt.Parameter_File>
results/run_pocketvec/dock.prm

>  <Rbt.Receptor>
results/run_pocketvec/st_parameters.prm

>  <SCORE>
-12.7259

>  <SCORE.INTER>
-7.26718

>  <SCORE.INTER.CONST>
1

>  <SCORE.INTER.POLAR>
-1.47148

>  <SCORE.INTER.REPUL>
0

>  <SCORE.INTER.ROT>
4

>  <SCORE.INTER.VDW>
-11.6641

>  <SCORE.INTER.norm>
-0.279507

>  <SCORE.INTRA>
-1.95177e-13

>  <SCORE.INTRA.DIHEDRAL>
2.8777e-13

>  <SCORE.INTRA.DIHEDRAL.0>
13.8722

>  <SCORE.INTRA.POLAR>
0

>  <SCORE.INTRA.POLAR.0>
0

>  <SCORE.INTRA.REPUL>
0

>  <SCORE.INTRA.REPUL.0>
0

>  <SCORE.INTRA.VDW>
-3.39062e-13

>  <SCORE.INTRA.VDW.0>
-0.120702

>  <SCORE.INTRA.norm>
-7.50682e-15

>  <SCORE.RESTR>
0

>  <SCORE.RESTR.CAVITY>
0

>  <SCORE.RESTR.norm>
0

>  <SCORE.SYSTEM>
-5.4587

>  <SCORE.SYSTEM.CONST>
0

>  <SCORE.SYSTEM.DIHEDRAL>
1.31107

>  <SCORE.SYSTEM.POLAR>
-1.74581

>  <SCORE.SYSTEM.VDW>
-0.178471

>  <SCORE.SYSTEM.norm>
-0.20995

>  <SCORE.heavy>
26

>  <SCORE.norm>
-0.489457

$$$$
Tripos 1534-05651
  rDOCK(R)          3D
libRbt.so/2021.1/901 2021/07/19
 27 30  0  0  0  0  0  0  0  0999 V2000
    3.1788    5.4200    9.8295 N   0  0  0  0  0  0
    3.3535    5.5370   11.1962 C   0  0  0  0  0  0
   -2.5659    2.9783   10.0363 C   0  0  0  0  0  0
   -2.1648    4.3827    9.6601 C   0  0  0  0  0  0
   -4.0720    2.6804   10.7432 S   0  0  0  0  0  0
   -0.9354    4.5343    9.0957 N   0  0  0  0  0  0
    4.4266    5.6188    9.1303 C   0  0  0  0  0  0
    4.6546    5.8889   11.4563 O   0  0  0  0  0  0
   -3.7683    1.0034   10.8464 C   0  0  0  0  0  0
   -1.8223    1.8165    9.8725 C   0  0  0  0  0  0
    5.2946    6.2364   10.2162 C   0  0  0  0  0  0
    1.9251    5.1221    9.1260 C   0  0  0  0  0  0
   -2.5304    0.6738   10.3465 C   0  0  0  0  0  0
    1.3842    3.7427    9.4975 C   0  0  0  0  0  0
    0.8812    6.2088    9.3735 C   0  0  0  0  0  0
    0.0507    3.4847    8.8099 C   0  0  0  0  0  0
   -0.4359    5.8541    8.6894 C   0  0  0  0  0  0
    2.5223    5.3626   12.0761 O   0  0  0  0  0  0
   -2.9491    5.3106    9.8748 O   0  0  0  0  0  0
    4.9879    4.3324    8.5589 C   0  0  0  0  0  0
   -4.9893   -0.0815   11.5338 S   0  0  0  0  0  0
    5.1164    4.1931    7.1678 C   0  0  0  0  0  0
    5.3703    3.2563    9.3763 C   0  0  0  0  0  0
   -4.0402   -1.5655   11.9237 C   0  0  0  0  0  0
    5.6175    3.0150    6.6107 C   0  0  0  0  0  0
    5.8716    2.0784    8.8172 C   0  0  0  0  0  0
    5.9949    1.9580    7.4354 C   0  0  0  0  0  0
  1  2  1  0  0  0
  1  7  1  0  0  0
  1 12  1  0  0  0
  2  8  1  0  0  0
  2 18  2  0  0  0
  3  4  1  0  0  0
  3  5  1  0  0  0
  3 10  2  0  0  0
  4  6  1  0  0  0
  4 19  2  0  0  0
  5  9  1  0  0  0
  6 16  1  0  0  0
  6 17  1  0  0  0
  7 11  1  0  0  0
  7 20  1  0  0  0
  8 11  1  0  0  0
  9 13  2  0  0  0
  9 21  1  0  0  0
 10 13  1  0  0  0
 12 14  1  0  0  0
 12 15  1  0  0  0
 14 16  1  0  0  0
 15 17  1  0  0  0
 20 22  2  0  0  0
 20 23  1  0  0  0
 21 24  1  0  0  0
 22 25  1  0  0  0
 23 26  2  0  0  0
 25 27  2  0  0  0
 26 27  1  0  0  0
M  END
>  <$CLUSTER>
695

>  <CHROM.0>
178.66882784,172.33822652,74.85945734

>  <CHROM.1>
0.58813769,3.48376055,9.84926329,0.32764591,0.23904065,0.09607174

>  <INDEX>
455659

>  <Name>
Tripos 1534-05651

>  <RI>
-1.67511e+09

>  <Rbt.Current_Directory>
/aloy/home/acomajuncosa/PocketVec_v2/GitLab_repo

>  <Rbt.Executable>
rbdock ($Id: //depot/dev/client3/rdock/2021.1/src/exe/rbdock.cxx#4 $)

>  <Rbt.Library>
libRbt.so (2021.1, Build901 2021/07/19)

>  <Rbt.Parameter_File>
results/run_pocketvec/dock.prm

>  <Rbt.Receptor>
results/run_pocketvec/st_parameters.prm

>  <SCORE>
-13.0046

>  <SCORE.INTER>
-7.56934

>  <SCORE.INTER.CONST>
1

>  <SCORE.INTER.POLAR>
0

>  <SCORE.INTER.REPUL>
0

>  <SCORE.INTER.ROT>
4

>  <SCORE.INTER.VDW>
-16.9693

>  <SCORE.INTER.norm>
-0.280346

>  <SCORE.INTRA>
-2.15136e-12

>  <SCORE.INTRA.DIHEDRAL>
-3.11307e-13

>  <SCORE.INTRA.DIHEDRAL.0>
3.51384

>  <SCORE.INTRA.POLAR>
0

>  <SCORE.INTRA.POLAR.0>
0

>  <SCORE.INTRA.REPUL>
0

>  <SCORE.INTRA.REPUL.0>
0

>  <SCORE.INTRA.VDW>
-1.99571e-12

>  <SCORE.INTRA.VDW.0>
0.244092

>  <SCORE.INTRA.norm>
-7.96801e-14

>  <SCORE.RESTR>
0.00463661

>  <SCORE.RESTR.CAVITY>
0.00463661

>  <SCORE.RESTR.norm>
0.000171726

>  <SCORE.SYSTEM>
-5.43988

>  <SCORE.SYSTEM.CONST>
0

>  <SCORE.SYSTEM.DIHEDRAL>
1.38981

>  <SCORE.SYSTEM.POLAR>
-1.75373

>  <SCORE.SYSTEM.VDW>
-0.172097

>  <SCORE.SYSTEM.norm>
-0.201477

>  <SCORE.heavy>
27

>  <SCORE.norm>
-0.481651

$$$$
Chembridge 5859646
  rDOCK(R)          3D
libRbt.so/2021.1/901 2021/07/19
 26 27  0  0  0  0  0  0  0  0999 V2000
   -2.0082    2.3171   10.2843 C   0  0  0  0  0  0
    1.4709    4.7606   10.2641 N   0  0  0  0  0  0
   -1.1438    3.3395   10.1514 N   0  0  0  0  0  0
    2.3595    5.7309   10.0302 C   0  0  0  0  0  0
   -5.8996    2.0763   16.0086 C   0  0  0  0  0  0
   -5.2193    2.1234   15.0192 C   0  0  0  0  0  0
   -2.8308    2.2904   11.5483 C   0  0  0  0  0  0
   -6.7284    2.0225   17.2132 C   0  0  0  0  0  0
    1.2165    3.6480    9.3296 C   0  0  0  0  0  0
    0.6029    4.6070   11.4477 C   0  0  0  0  0  0
   -0.8895    4.4521   11.0859 C   0  0  0  0  0  0
   -0.2759    3.4931    8.9678 C   0  0  0  0  0  0
    3.0683    5.8308    9.0332 O   0  0  0  0  0  0
   -2.1588    1.4226    9.4492 O   0  0  0  0  0  0
   -4.4103    2.1797   13.8394 C   0  0  0  0  0  0
   -4.0575    1.6201   11.5140 C   0  0  0  0  0  0
   -2.3857    2.8876   12.7184 C   0  0  0  0  0  0
    2.4296    6.6545   11.0273 O   0  0  0  0  0  0
   -3.1799    2.8339   13.8666 C   0  0  0  0  0  0
   -4.8478    1.5711   12.6648 C   0  0  0  0  0  0
   -7.2300    3.3282   17.5111 O   0  0  0  0  0  0
   -7.9414    1.1143   16.9914 C   0  0  0  0  0  0
   -5.9147    1.5346   18.4147 C   0  0  0  0  0  0
    3.3312    7.7386   10.9064 C   0  0  0  0  0  0
    3.2224    8.6184   12.1344 C   0  0  0  0  0  0
   -7.7379    3.6245   16.7520 H   0  0  0  0  0  0
  1  3  1  0  0  0
  1  7  1  0  0  0
  1 14  2  0  0  0
  2  4  1  0  0  0
  2  9  1  0  0  0
  2 10  1  0  0  0
  3 11  1  0  0  0
  3 12  1  0  0  0
  4 13  2  0  0  0
  4 18  1  0  0  0
  5  6  3  0  0  0
  5  8  1  0  0  0
  6 15  1  0  0  0
  7 16  1  0  0  0
  7 17  2  0  0  0
  8 21  1  0  0  0
  8 22  1  0  0  0
  8 23  1  0  0  0
  9 12  1  0  0  0
 10 11  1  0  0  0
 15 19  2  0  0  0
 15 20  1  0  0  0
 16 20  2  0  0  0
 17 19  1  0  0  0
 18 24  1  0  0  0
 21 26  1  0  0  0
 24 25  1  0  0  0
M  END
>  <$CLUSTER>
78

>  <CHROM.0>
171.80700504,171.66590893,72.98753368

>  <CHROM.1>
-1.90166027,3.59800147,12.44115008,0.29086447,-0.65778407,-2.11590236

>  <INDEX>
53762

>  <Name>
Chembridge 5859646

>  <RI>
-1.67511e+09

>  <Rbt.Current_Directory>
/aloy/home/acomajuncosa/PocketVec_v2/GitLab_repo

>  <Rbt.Executable>
rbdock ($Id: //depot/dev/client3/rdock/2021.1/src/exe/rbdock.cxx#4 $)

>  <Rbt.Library>
libRbt.so (2021.1, Build901 2021/07/19)

>  <Rbt.Parameter_File>
results/run_pocketvec/dock.prm

>  <Rbt.Receptor>
results/run_pocketvec/st_parameters.prm

>  <SCORE>
-9.33566

>  <SCORE.INTER>
-3.87693

>  <SCORE.INTER.CONST>
1

>  <SCORE.INTER.POLAR>
-0.00897997

>  <SCORE.INTER.REPUL>
0

>  <SCORE.INTER.ROT>
5

>  <SCORE.INTER.VDW>
-14.2464

>  <SCORE.INTER.norm>
-0.155077

>  <SCORE.INTRA>
-2.74425e-12

>  <SCORE.INTRA.DIHEDRAL>
9.25038e-13

>  <SCORE.INTRA.DIHEDRAL.0>
2.39456

>  <SCORE.INTRA.POLAR>
0

>  <SCORE.INTRA.POLAR.0>
0

>  <SCORE.INTRA.REPUL>
0

>  <SCORE.INTRA.REPUL.0>
0

>  <SCORE.INTRA.VDW>
-3.20677e-12

>  <SCORE.INTRA.VDW.0>
2.87834

>  <SCORE.INTRA.norm>
-1.0977e-13

>  <SCORE.RESTR>
0

>  <SCORE.RESTR.CAVITY>
0

>  <SCORE.RESTR.norm>
0

>  <SCORE.SYSTEM>
-5.45873

>  <SCORE.SYSTEM.CONST>
0

>  <SCORE.SYSTEM.DIHEDRAL>
1.3139

>  <SCORE.SYSTEM.POLAR>
-1.73836

>  <SCORE.SYSTEM.VDW>
-0.205262

>  <SCORE.SYSTEM.norm>
-0.218349

>  <SCORE.heavy>
25

>  <SCORE.norm>
-0.373426

$$$$
Specs AK-968/37053096
  rDOCK(R)          3D
libRbt.so/2021.1/901 2021/07/19
 24 26  0  0  0  0  0  0  0  0999 V2000
   -4.8591    2.8497   12.5871 N   0  0  0  0  0  0
   -5.2387    2.3035   13.8111 C   0  0  0  0  0  0
   -4.6565    4.3220   11.0620 C   0  0  0  0  0  0
   -5.1451    4.1391   12.2508 N   0  0  0  0  0  0
   -4.1608    2.1360   11.6216 C   0  0  0  0  0  0
   -3.9674    3.1122   10.4917 C   0  0  0  0  0  0
   -4.9988    1.0739   14.2148 N   0  0  0  0  0  0
   -6.1038    3.2900   14.9214 S   0  0  0  0  0  0
   -4.7579    5.6012   10.3110 C   0  0  0  0  0  0
   -5.5250    0.8902   15.4774 C   0  0  0  0  0  0
   -6.1633    1.9818   16.0244 C   0  0  0  0  0  0
   -3.7687    0.9833   11.6679 O   0  0  0  0  0  0
   -2.5260    3.3407   10.1556 C   0  0  0  0  0  0
   -2.0893    3.1947    8.9500 N   0  0  0  0  0  0
   -5.2339    5.4112    9.0539 F   0  0  0  0  0  0
   -5.5847    6.4926   10.9121 F   0  0  0  0  0  0
   -3.5509    6.2096   10.1860 F   0  0  0  0  0  0
   -5.4561   -0.3153   16.2284 C   0  0  0  0  0  0
   -6.7514    1.9421   17.3093 C   0  0  0  0  0  0
   -0.6602    3.4612    8.8191 C   0  0  0  0  0  0
   -0.2674    3.2586    7.3665 C   0  0  0  0  0  0
   -6.0341   -0.3667   17.5006 C   0  0  0  0  0  0
   -6.6723    0.7491   18.0323 C   0  0  0  0  0  0
    1.2377    3.5178    7.1704 C   0  0  0  0  0  0
  1  2  1  0  0  0
  1  4  1  0  0  0
  1  5  1  0  0  0
  2  7  2  0  0  0
  2  8  1  0  0  0
  3  4  2  0  0  0
  3  6  1  0  0  0
  3  9  1  0  0  0
  5  6  1  0  0  0
  5 12  2  0  0  0
  6 13  1  0  0  0
  7 10  1  0  0  0
  8 11  1  0  0  0
  9 15  1  0  0  0
  9 16  1  0  0  0
  9 17  1  0  0  0
 10 11  2  0  0  0
 10 18  1  0  0  0
 11 19  1  0  0  0
 13 14  2  0  0  0
 14 20  1  0  0  0
 18 22  2  0  0  0
 19 23  2  0  0  0
 20 21  1  0  0  0
 21 24  1  0  0  0
 22 23  1  0  0  0
M  END
>  <$CLUSTER>
765

>  <CHROM.0>
4.62617238,171.77999820,73.11473639

>  <CHROM.1>
-4.34046806,3.06852114,12.28640512,2.21090978,-0.71413349,2.39948687

>  <INDEX>
503343

>  <Name>
Specs AK-968/37053096

>  <RI>
-1.67511e+09

>  <Rbt.Current_Directory>
/aloy/home/acomajuncosa/PocketVec_v2/GitLab_repo

>  <Rbt.Executable>
rbdock ($Id: //depot/dev/client3/rdock/2021.1/src/exe/rbdock.cxx#4 $)

>  <Rbt.Library>
libRbt.so (2021.1, Build901 2021/07/19)

>  <Rbt.Parameter_File>
results/run_pocketvec/dock.prm

>  <Rbt.Receptor>
results/run_pocketvec/st_parameters.prm

>  <SCORE>
-17.0124

>  <SCORE.INTER>
-11.4123

>  <SCORE.INTER.CONST>
1

>  <SCORE.INTER.POLAR>
-0.0112189

>  <SCORE.INTER.REPUL>
0

>  <SCORE.INTER.ROT>
5

>  <SCORE.INTER.VDW>
-21.7741

>  <SCORE.INTER.norm>
-0.475512

>  <SCORE.INTRA>
2.93099e-13

>  <SCORE.INTRA.DIHEDRAL>
8.26006e-14

>  <SCORE.INTRA.DIHEDRAL.0>
4.18223

>  <SCORE.INTRA.POLAR>
0

>  <SCORE.INTRA.POLAR.0>
0

>  <SCORE.INTRA.REPUL>
0

>  <SCORE.INTRA.REPUL.0>
0

>  <SCORE.INTRA.VDW>
2.51799e-13

>  <SCORE.INTRA.VDW.0>
-2.332

>  <SCORE.INTRA.norm>
1.22125e-14

>  <SCORE.RESTR>
0

>  <SCORE.RESTR.CAVITY>
0

>  <SCORE.RESTR.norm>
0

>  <SCORE.SYSTEM>
-5.60016

>  <SCORE.SYSTEM.CONST>
0

>  <SCORE.SYSTEM.DIHEDRAL>
1.23169

>  <SCORE.SYSTEM.POLAR>
-1.73941

>  <SCORE.SYSTEM.VDW>
-0.302004

>  <SCORE.SYSTEM.norm>
-0.23334

>  <SCORE.heavy>
24

>  <SCORE.norm>
-0.708852

$$$$
InterBioScreen STOCK3S-07953
  rDOCK(R)          3D
libRbt.so/2021.1/901 2021/07/19
 26 28  0  0  0  0  0  0  0  0999 V2000
   -5.7628    0.5245   18.4985 N   0  0  0  0  0  0
   -5.1599    2.0750   13.1069 C   0  0  0  0  0  0
   -6.3798    1.6050   18.9213 C   0  0  0  0  0  0
   -6.0249    1.9883   16.7720 C   0  0  0  0  0  0
   -5.3036    1.6491   14.5297 C   0  0  0  0  0  0
   -6.5605    2.5159   17.9183 N   0  0  0  0  0  0
   -4.3450    7.2845   10.1575 C   0  0  0  0  0  0
   -4.6042    5.8905   10.2074 C   0  0  0  0  0  0
   -5.5319    0.7452   17.1600 C   0  0  0  0  0  0
   -5.9300    2.4759   15.4680 C   0  0  0  0  0  0
   -5.0076    3.9941   11.6007 N   0  0  0  0  0  0
   -4.1827    7.8926    8.8998 C   0  0  0  0  0  0
   -5.1373    3.4315   12.8669 N   0  0  0  0  0  0
   -5.0555    1.2356   12.2158 O   0  0  0  0  0  0
   -4.7993    0.3970   14.8896 C   0  0  0  0  0  0
   -4.7799    5.2232   11.5377 C   0  0  0  0  0  0
   -4.9063   -0.0727   16.2050 C   0  0  0  0  0  0
   -4.6919    5.1514    9.0390 C   0  0  0  0  0  0
   -4.2756    7.1343    7.7300 C   0  0  0  0  0  0
   -4.5300    5.7661    7.7979 C   0  0  0  0  0  0
   -4.2689    7.9665   11.3680 O   0  0  0  0  0  0
   -4.0949    7.8616    6.5714 O   0  0  0  0  0  0
   -4.0082    9.3745   11.3068 C   0  0  0  0  0  0
   -4.1790    7.1426    5.3458 C   0  0  0  0  0  0
   -7.0085    3.4169   18.0055 H   0  0  0  0  0  0
   -5.2196    4.0550   13.6575 H   0  0  0  0  0  0
  1  3  2  0  0  0
  1  9  1  0  0  0
  2  5  1  0  0  0
  2 13  1  0  0  0
  2 14  2  0  0  0
  3  6  1  0  0  0
  4  6  1  0  0  0
  4  9  1  0  0  0
  4 10  2  0  0  0
  5 10  1  0  0  0
  5 15  2  0  0  0
  6 25  1  0  0  0
  7  8  2  0  0  0
  7 12  1  0  0  0
  7 21  1  0  0  0
  8 16  1  0  0  0
  8 18  1  0  0  0
  9 17  2  0  0  0
 11 13  1  0  0  0
 11 16  2  0  0  0
 12 19  2  0  0  0
 13 26  1  0  0  0
 15 17  1  0  0  0
 18 20  2  0  0  0
 19 20  1  0  0  0
 19 22  1  0  0  0
 21 23  1  0  0  0
 22 24  1  0  0  0
M  END
>  <$CLUSTER>
521

>  <CHROM.0>
1.99681132,172.90043793,73.68799238

>  <CHROM.1>
-4.96861340,4.21535277,12.43232436,2.88235921,-1.42787573,-2.79165111

>  <INDEX>
341558

>  <Name>
InterBioScreen STOCK3S-07953

>  <RI>
-1.67511e+09

>  <Rbt.Current_Directory>
/aloy/home/acomajuncosa/PocketVec_v2/GitLab_repo

>  <Rbt.Executable>
rbdock ($Id: //depot/dev/client3/rdock/2021.1/src/exe/rbdock.cxx#4 $)

>  <Rbt.Library>
libRbt.so (2021.1, Build901 2021/07/19)

>  <Rbt.Parameter_File>
results/run_pocketvec/dock.prm

>  <Rbt.Receptor>
results/run_pocketvec/st_parameters.prm

>  <SCORE>
-16.3655

>  <SCORE.INTER>
-10.7596

>  <SCORE.INTER.CONST>
1

>  <SCORE.INTER.POLAR>
-0.915741

>  <SCORE.INTER.REPUL>
0.00305539

>  <SCORE.INTER.ROT>
5

>  <SCORE.INTER.VDW>
-18.0614

>  <SCORE.INTER.norm>
-0.448319

>  <SCORE.INTRA>
1.87006e-12

>  <SCORE.INTRA.DIHEDRAL>
5.37348e-13

>  <SCORE.INTRA.DIHEDRAL.0>
2.63804

>  <SCORE.INTRA.POLAR>
0

>  <SCORE.INTRA.POLAR.0>
0

>  <SCORE.INTRA.REPUL>
0

>  <SCORE.INTRA.REPUL.0>
0

>  <SCORE.INTRA.VDW>
1.60139e-12

>  <SCORE.INTRA.VDW.0>
4.20812

>  <SCORE.INTRA.norm>
7.79192e-14

>  <SCORE.RESTR>
0

>  <SCORE.RESTR.CAVITY>
0

>  <SCORE.RESTR.norm>
0

>  <SCORE.SYSTEM>
-5.60582

>  <SCORE.SYSTEM.CONST>
0

>  <SCORE.SYSTEM.DIHEDRAL>
1.1988

>  <SCORE.SYSTEM.POLAR>
-1.74415

>  <SCORE.SYSTEM.VDW>
-0.275116

>  <SCORE.SYSTEM.norm>
-0.233576

>  <SCORE.heavy>
24

>  <SCORE.norm>
-0.681894

$$$$
Maybridge RJF 01152
  rDOCK(R)          3D
libRbt.so/2021.1/901 2021/07/19
 21 22  0  0  0  0  0  0  0  0999 V2000
   -5.4943    3.5016   13.8033 C   0  0  0  0  0  0
   -5.1825    2.2185   13.5290 N   0  0  0  0  0  0
   -6.0951    3.7398   15.0820 O   0  0  0  0  0  0
   -4.6195    2.0281   12.3230 C   0  0  0  0  0  0
   -6.2824    2.6367   15.8720 C   0  0  0  0  0  0
   -4.3572    2.9840   11.4095 N   0  0  0  0  0  0
   -5.2849    4.5683   12.9769 C   0  0  0  0  0  0
   -4.7002    4.2427   11.7645 C   0  0  0  0  0  0
   -6.8711    2.9476   17.1018 N   0  0  0  0  0  0
   -4.2507    0.6242   11.9565 C   0  0  0  0  0  0
   -5.9633    1.5015   15.5245 O   0  0  0  0  0  0
   -3.6549    0.3166   10.7150 C   0  0  0  0  0  0
   -4.4848   -0.4487   12.8442 C   0  0  0  0  0  0
   -3.5548   -2.0325   11.2745 C   0  0  0  0  0  0
   -4.1407   -1.7599   12.5074 C   0  0  0  0  0  0
   -3.3112   -0.9960   10.3782 C   0  0  0  0  0  0
   -3.1422   -3.6359   10.8769 Cl  0  0  0  0  0  0
   -5.6506    5.9768   13.3320 C   0  0  0  0  0  0
   -4.4208    5.3307   10.7689 C   0  0  0  0  0  0
   -7.1439    1.8938   18.0680 C   0  0  0  0  0  0
   -7.2463    4.2994   17.5033 C   0  0  0  0  0  0
  1  2  1  0  0  0
  1  3  1  0  0  0
  1  7  2  0  0  0
  2  4  2  0  0  0
  3  5  1  0  0  0
  4  6  1  0  0  0
  4 10  1  0  0  0
  5  9  1  0  0  0
  5 11  2  0  0  0
  6  8  2  0  0  0
  7  8  1  0  0  0
  7 18  1  0  0  0
  8 19  1  0  0  0
  9 20  1  0  0  0
  9 21  1  0  0  0
 10 12  1  0  0  0
 10 13  2  0  0  0
 12 16  2  0  0  0
 13 15  1  0  0  0
 14 15  2  0  0  0
 14 16  1  0  0  0
 14 17  1  0  0  0
M  END
>  <$CLUSTER>
949

>  <CHROM.0>
2.25668272,173.06211557,75.05110980

>  <CHROM.1>
-4.95667920,1.57518047,13.23444250,-2.57542070,-1.13407867,2.81924003

>  <INDEX>
619839

>  <Name>
Maybridge RJF 01152

>  <RI>
-1.67511e+09

>  <Rbt.Current_Directory>
/aloy/home/acomajuncosa/PocketVec_v2/GitLab_repo

>  <Rbt.Executable>
rbdock ($Id: //depot/dev/client3/rdock/2021.1/src/exe/rbdock.cxx#4 $)

>  <Rbt.Library>
libRbt.so (2021.1, Build901 2021/07/19)

>  <Rbt.Parameter_File>
results/run_pocketvec/dock.prm

>  <Rbt.Receptor>
results/run_pocketvec/st_parameters.prm

>  <SCORE>
-8.25672

>  <SCORE.INTER>
-2.66815

>  <SCORE.INTER.CONST>
1

>  <SCORE.INTER.POLAR>
0

>  <SCORE.INTER.REPUL>
0.0140291

>  <SCORE.INTER.ROT>
3

>  <SCORE.INTER.VDW>
-11.1383

>  <SCORE.INTER.norm>
-0.127055

>  <SCORE.INTRA>
3.51669e-12

>  <SCORE.INTRA.DIHEDRAL>
3.4417e-15

>  <SCORE.INTRA.DIHEDRAL.0>
3.98762e-05

>  <SCORE.INTRA.POLAR>
0

>  <SCORE.INTRA.POLAR.0>
0

>  <SCORE.INTRA.REPUL>
0

>  <SCORE.INTRA.REPUL.0>
0

>  <SCORE.INTRA.VDW>
3.51497e-12

>  <SCORE.INTRA.VDW.0>
2.47585

>  <SCORE.INTRA.norm>
1.67461e-13

>  <SCORE.RESTR>
0

>  <SCORE.RESTR.CAVITY>
0

>  <SCORE.RESTR.norm>
0

>  <SCORE.SYSTEM>
-5.58857

>  <SCORE.SYSTEM.CONST>
0

>  <SCORE.SYSTEM.DIHEDRAL>
1.36352

>  <SCORE.SYSTEM.POLAR>
-1.75529

>  <SCORE.SYSTEM.VDW>
-0.302362

>  <SCORE.SYSTEM.norm>
-0.266122

>  <SCORE.heavy>
21

>  <SCORE.norm>
-0.393177

$$$$
Tripos 1518-03381
  rDOCK(R)          3D
libRbt.so/2021.1/901 2021/07/19
 28 31  0  0  0  0  0  0  0  0999 V2000
    1.1724    3.5890   11.1790 C   0  0  0  0  0  0
   -1.3048    3.4290   10.7892 C   0  0  0  0  0  0
    1.9246    4.3024   10.1652 C   0  0  0  0  0  0
   -2.4480    2.6510   10.5333 N   0  0  0  0  0  0
    2.9772    4.9247   12.4416 S   0  0  0  0  0  0
    1.6557    3.8533   12.4447 C   0  0  0  0  0  0
    0.0111    2.6745   10.9056 C   0  0  0  0  0  0
    2.9471    5.0734   10.7287 C   0  0  0  0  0  0
   -3.7718    2.4190   12.7399 N   0  3  0  0  0  0
    1.7807    4.3305    8.7539 C   0  0  0  0  0  0
   -1.3442    4.6543   10.9158 O   0  0  0  0  0  0
   -3.7466    3.3014   10.4083 C   0  0  0  0  0  0
   -4.2126    6.6196   14.6741 N   0  0  0  0  0  0
   -4.0139    2.8601   14.1440 C   0  0  0  0  0  0
    3.8098    5.8555    9.9335 C   0  0  0  0  0  0
   -3.5916    4.2921   14.4168 C   0  0  0  0  0  0
   -4.5982    3.1703   11.7076 C   0  0  0  0  0  0
    2.6336    5.1043    7.9618 C   0  0  0  0  0  0
   -3.6060    0.4917   11.1166 C   0  0  0  0  0  0
   -2.4609    1.1992   10.3738 C   0  0  0  0  0  0
    3.6379    5.8584    8.5483 C   0  0  0  0  0  0
    2.4216    5.1068    6.2698 Cl  0  0  0  0  0  0
   -3.7772    0.9183   12.5800 C   0  0  0  0  0  0
   -4.5271    5.3142   14.4605 C   0  0  0  0  0  0
   -2.8964    6.9086   14.8329 C   0  0  0  0  0  0
   -2.2431    4.6259   14.5667 C   0  0  0  0  0  0
   -1.8890    5.9555   14.7870 C   0  0  0  0  0  0
   -2.8221    2.6930   12.5299 H   0  0  0  0  0  0
  1  3  1  0  0  0
  1  6  2  0  0  0
  1  7  1  0  0  0
  2  4  1  0  0  0
  2  7  1  0  0  0
  2 11  2  0  0  0
  3  8  2  0  0  0
  3 10  1  0  0  0
  4 12  1  0  0  0
  4 20  1  0  0  0
  5  6  1  0  0  0
  5  8  1  0  0  0
  8 15  1  0  0  0
  9 14  1  0  0  0
  9 17  1  0  0  0
  9 23  1  0  0  0
  9 28  1  0  0  0
 10 18  2  0  0  0
 12 17  1  0  0  0
 13 24  2  0  0  0
 13 25  1  0  0  0
 14 16  1  0  0  0
 15 21  2  0  0  0
 16 24  1  0  0  0
 16 26  2  0  0  0
 18 21  1  0  0  0
 18 22  1  0  0  0
 19 20  1  0  0  0
 19 23  1  0  0  0
 25 27  2  0  0  0
 26 27  1  0  0  0
M  END
>  <$CLUSTER>
674

>  <CHROM.0>
3.66961512,172.69580287,75.49507626

>  <CHROM.1>
-0.65790829,4.11666007,11.33111081,-0.42342751,0.49121047,1.03028163

>  <INDEX>
443046

>  <Name>
Tripos 1518-03381

>  <RI>
-1.67511e+09

>  <Rbt.Current_Directory>
/aloy/home/acomajuncosa/PocketVec_v2/GitLab_repo

>  <Rbt.Executable>
rbdock ($Id: //depot/dev/client3/rdock/2021.1/src/exe/rbdock.cxx#4 $)

>  <Rbt.Library>
libRbt.so (2021.1, Build901 2021/07/19)

>  <Rbt.Parameter_File>
results/run_pocketvec/dock.prm

>  <Rbt.Receptor>
results/run_pocketvec/st_parameters.prm

>  <SCORE>
-13.9143

>  <SCORE.INTER>
-8.32734

>  <SCORE.INTER.CONST>
1

>  <SCORE.INTER.POLAR>
0

>  <SCORE.INTER.REPUL>
0

>  <SCORE.INTER.ROT>
4

>  <SCORE.INTER.VDW>
-17.7273

>  <SCORE.INTER.norm>
-0.30842

>  <SCORE.INTRA>
5.41345e-13

>  <SCORE.INTRA.DIHEDRAL>
1.14486e-12

>  <SCORE.INTRA.DIHEDRAL.0>
3.49

>  <SCORE.INTRA.POLAR>
0

>  <SCORE.INTRA.POLAR.0>
0

>  <SCORE.INTRA.REPUL>
0

>  <SCORE.INTRA.REPUL.0>
0

>  <SCORE.INTRA.VDW>
-3.10862e-14

>  <SCORE.INTRA.VDW.0>
-2.47805

>  <SCORE.INTRA.norm>
2.00498e-14

>  <SCORE.RESTR>
0

>  <SCORE.RESTR.CAVITY>
0

>  <SCORE.RESTR.norm>
0

>  <SCORE.SYSTEM>
-5.58692

>  <SCORE.SYSTEM.CONST>
0

>  <SCORE.SYSTEM.DIHEDRAL>
1.45771

>  <SCORE.SYSTEM.POLAR>
-1.75887

>  <SCORE.SYSTEM.VDW>
-0.335602

>  <SCORE.SYSTEM.norm>
-0.206923

>  <SCORE.heavy>
27

>  <SCORE.norm>
-0.515343

$$$$
Specs AG-205/07903010
  rDOCK(R)          3D
libRbt.so/2021.1/901 2021/07/19
 27 29  0  0  0  0  0  0  0  0999 V2000
   -5.0931    8.2300    4.6350 N   0  3  0  0  0  0
   -6.2376    9.6077    9.2148 C   0  0  0  0  0  0
   -5.8976    8.3377    9.5969 O   0  0  0  0  0  0
   -6.6357   10.3255   10.3277 C   0  0  0  0  0  0
   -5.5592    9.2481    5.5759 C   0  0  0  0  0  0
   -6.0805    8.2564   10.9393 C   0  0  0  0  0  0
   -5.9706    5.2818   14.6530 C   0  0  0  0  0  0
   -6.1126    9.9134    7.7918 C   0  0  0  0  0  0
   -5.9270    6.8300   12.8394 N   0  0  0  0  0  0
   -5.6547    8.9126    6.8675 C   0  0  0  0  0  0
   -6.5344    9.4526   11.4379 C   0  0  0  0  0  0
   -4.8073    7.1044    5.0684 O   0  5  0  0  0  0
   -5.0100    8.5562    3.4430 O   0  0  0  0  0  0
   -5.7832    7.0004   11.5675 C   0  0  0  0  0  0
   -5.5482    3.8798   15.0063 C   0  0  0  0  0  0
   -5.6075    5.5853   13.2775 N   0  0  0  0  0  0
   -6.5060    6.0301   15.4269 O   0  0  0  0  0  0
   -4.5118    3.1897   14.4379 C   0  0  0  0  0  0
   -6.2844    3.2998   16.0808 C   0  0  0  0  0  0
   -4.9178    1.3133   15.9119 C   0  0  0  0  0  0
   -5.9618    2.0127   16.5147 C   0  0  0  0  0  0
   -4.1937    1.9020   14.8775 C   0  0  0  0  0  0
   -4.6744    0.0891   16.3798 F   0  0  0  0  0  0
   -5.8876   10.5811    4.9911 C   0  0  0  0  0  0
   -6.4398   11.1914    7.3097 C   0  0  0  0  0  0
   -6.3249   11.4973    5.9505 C   0  0  0  0  0  0
   -5.1456    4.9110   12.6841 H   0  0  0  0  0  0
  1  5  1  0  0  0
  1 12  1  0  0  0
  1 13  2  0  0  0
  2  3  1  0  0  0
  2  4  2  0  0  0
  2  8  1  0  0  0
  3  6  1  0  0  0
  4 11  1  0  0  0
  5 10  2  0  0  0
  5 24  1  0  0  0
  6 11  2  0  0  0
  6 14  1  0  0  0
  7 15  1  0  0  0
  7 16  1  0  0  0
  7 17  2  0  0  0
  8 10  1  0  0  0
  8 25  2  0  0  0
  9 14  2  0  0  0
  9 16  1  0  0  0
 15 18  1  0  0  0
 15 19  2  0  0  0
 16 27  1  0  0  0
 18 22  2  0  0  0
 19 21  1  0  0  0
 20 21  2  0  0  0
 20 22  1  0  0  0
 20 23  1  0  0  0
 24 26  2  0  0  0
 25 26  1  0  0  0
M  END
>  <$CLUSTER>
940

>  <CHROM.0>
4.71569340,171.13101940,73.59696116

>  <CHROM.1>
-5.67193252,6.73640171,10.77872034,-1.66601780,-1.21422867,2.10413407

>  <INDEX>
492692

>  <Name>
Specs AG-205/07903010

>  <RI>
-1.67511e+09

>  <Rbt.Current_Directory>
/aloy/home/acomajuncosa/PocketVec_v2/GitLab_repo

>  <Rbt.Executable>
rbdock ($Id: //depot/dev/client3/rdock/2021.1/src/exe/rbdock.cxx#4 $)

>  <Rbt.Library>
libRbt.so (2021.1, Build901 2021/07/19)

>  <Rbt.Parameter_File>
results/run_pocketvec/dock.prm

>  <Rbt.Receptor>
results/run_pocketvec/st_parameters.prm

>  <SCORE>
-9.85175

>  <SCORE.INTER>
-4.24947

>  <SCORE.INTER.CONST>
1

>  <SCORE.INTER.POLAR>
0

>  <SCORE.INTER.REPUL>
0

>  <SCORE.INTER.ROT>
4

>  <SCORE.INTER.VDW>
-13.6495

>  <SCORE.INTER.norm>
-0.163441

>  <SCORE.INTRA>
-1.70142e-12

>  <SCORE.INTRA.DIHEDRAL>
-5.8753e-13

>  <SCORE.INTRA.DIHEDRAL.0>
2.65709

>  <SCORE.INTRA.POLAR>
0

>  <SCORE.INTRA.POLAR.0>
0

>  <SCORE.INTRA.REPUL>
0

>  <SCORE.INTRA.REPUL.0>
0

>  <SCORE.INTRA.VDW>
-1.40765e-12

>  <SCORE.INTRA.VDW.0>
-0.39122

>  <SCORE.INTRA.norm>
-6.54391e-14

>  <SCORE.RESTR>
0

>  <SCORE.RESTR.CAVITY>
0

>  <SCORE.RESTR.norm>
0

>  <SCORE.SYSTEM>
-5.60228

>  <SCORE.SYSTEM.CONST>
0

>  <SCORE.SYSTEM.DIHEDRAL>
1.34306

>  <SCORE.SYSTEM.POLAR>
-1.7434

>  <SCORE.SYSTEM.VDW>
-0.346256

>  <SCORE.SYSTEM.norm>
-0.215472

>  <SCORE.heavy>
26

>  <SCORE.norm>
-0.378913

$$$$
Asinex ASN 04479736
  rDOCK(R)          3D
libRbt.so/2021.1/901 2021/07/19
 28 31  0  0  0  0  0  0  0  0999 V2000
   -1.3601    5.1438   13.8000 S   0  0  0  0  0  0
   -2.7895    4.4922   13.1504 N   0  0  0  0  0  0
   -2.2350   11.0764   13.4695 N   0  0  0  0  0  0
   -1.9198   11.8772   12.4268 N   0  0  0  0  0  0
   -2.2703   13.1059   12.7712 N   0  0  0  0  0  0
   -2.8100   13.1291   14.0250 N   0  0  0  0  0  0
   -1.6364    6.9079   13.6707 C   0  0  0  0  0  0
   -2.7856   11.8853   14.4433 C   0  0  0  0  0  0
   -2.0103    9.6475   13.4916 C   0  0  0  0  0  0
   -2.9093    4.3987   11.6813 C   0  0  0  0  0  0
   -1.4378    8.9520   12.4254 C   0  0  0  0  0  0
   -1.2466    7.5720   12.5120 C   0  0  0  0  0  0
   -1.2980    4.7910   15.2076 O   0  0  0  0  0  0
   -0.2595    4.7921   12.9191 O   0  0  0  0  0  0
   -2.4392    3.0325   11.2076 C   0  0  0  0  0  0
   -2.3919    8.9671   14.6495 C   0  0  0  0  0  0
   -3.3880    2.0674   11.1675 O   0  0  0  0  0  0
   -2.2035    7.5872   14.7435 C   0  0  0  0  0  0
   -4.0387    4.5528   13.9567 C   0  0  0  0  0  0
   -1.2268    2.5662   10.7932 C   0  0  0  0  0  0
   -2.7624    0.9491   10.7150 C   0  0  0  0  0  0
   -1.4332    1.2040   10.4707 C   0  0  0  0  0  0
   -0.9810    9.5876   11.1132 C   0  0  0  0  0  0
   -4.7313    3.1922   13.9306 C   0  0  0  0  0  0
   -4.9834    5.6661   13.5115 C   0  0  0  0  0  0
   -6.0393    3.2047   14.7204 C   0  0  0  0  0  0
   -6.2642    5.6827   14.2881 C   0  0  0  0  0  0
   -6.9627    4.3268   14.2561 C   0  0  0  0  0  0
  1  2  1  0  0  0
  1  7  1  0  0  0
  1 13  2  0  0  0
  1 14  2  0  0  0
  2 10  1  0  0  0
  2 19  1  0  0  0
  3  4  1  0  0  0
  3  8  1  0  0  0
  3  9  1  0  0  0
  4  5  2  0  0  0
  5  6  1  0  0  0
  6  8  2  0  0  0
  7 12  2  0  0  0
  7 18  1  0  0  0
  9 11  2  0  0  0
  9 16  1  0  0  0
 10 15  1  0  0  0
 11 12  1  0  0  0
 11 23  1  0  0  0
 15 17  1  0  0  0
 15 20  2  0  0  0
 16 18  2  0  0  0
 17 21  1  0  0  0
 19 24  1  0  0  0
 19 25  1  0  0  0
 20 22  1  0  0  0
 21 22  2  0  0  0
 24 26  1  0  0  0
 25 27  1  0  0  0
 26 28  1  0  0  0
 27 28  1  0  0  0
M  END
>  <$CLUSTER>
216

>  <CHROM.0>
176.68658489,172.70792113,168.01015332

>  <CHROM.1>
-2.68774658,6.35393763,13.09596970,-1.70866062,0.53416713,0.18987539

>  <INDEX>
140148

>  <Name>
Asinex ASN 04479736

>  <RI>
-1.67511e+09

>  <Rbt.Current_Directory>
/aloy/home/acomajuncosa/PocketVec_v2/GitLab_repo

>  <Rbt.Executable>
rbdock ($Id: //depot/dev/client3/rdock/2021.1/src/exe/rbdock.cxx#4 $)

>  <Rbt.Library>
libRbt.so (2021.1, Build901 2021/07/19)

>  <Rbt.Parameter_File>
results/run_pocketvec/dock.prm

>  <Rbt.Receptor>
results/run_pocketvec/st_parameters.prm

>  <SCORE>
-6.08245

>  <SCORE.INTER>
-3.76348

>  <SCORE.INTER.CONST>
1

>  <SCORE.INTER.POLAR>
0

>  <SCORE.INTER.REPUL>
0.0135977

>  <SCORE.INTER.ROT>
6

>  <SCORE.INTER.VDW>
-15.2315

>  <SCORE.INTER.norm>
-0.13441

>  <SCORE.INTRA>
2.70894e-14

>  <SCORE.INTRA.DIHEDRAL>
-6.49258e-13

>  <SCORE.INTRA.DIHEDRAL.0>
6.00964

>  <SCORE.INTRA.POLAR>
0

>  <SCORE.INTRA.POLAR.0>
0

>  <SCORE.INTRA.REPUL>
0

>  <SCORE.INTRA.REPUL.0>
0

>  <SCORE.INTRA.VDW>
3.51719e-13

>  <SCORE.INTRA.VDW.0>
-2.65427

>  <SCORE.INTRA.norm>
9.6748e-16

>  <SCORE.RESTR>
0

>  <SCORE.RESTR.CAVITY>
0

>  <SCORE.RESTR.norm>
0

>  <SCORE.SYSTEM>
-2.31897

>  <SCORE.SYSTEM.CONST>
0

>  <SCORE.SYSTEM.DIHEDRAL>
1.0335

>  <SCORE.SYSTEM.POLAR>
-0.994987

>  <SCORE.SYSTEM.REPUL>
0.000252859

>  <SCORE.SYSTEM.VDW>
0.545975

>  <SCORE.SYSTEM.norm>
-0.0828203

>  <SCORE.heavy>
28

>  <SCORE.norm>
-0.21723

$$$$
Asinex ASN 05110337
  rDOCK(R)          3D
libRbt.so/2021.1/901 2021/07/19
 33 37  0  0  0  0  0  0  0  0999 V2000
   -1.1985    2.8571   11.2255 C   0  0  0  0  0  0
    0.1902    3.1707   11.7409 C   0  0  0  0  0  0
    0.9105    4.0885   11.0122 N   0  0  0  0  0  0
   -3.2753    1.5398   11.5260 N   0  0  0  0  0  0
   -1.6105    3.4861   10.1255 C   0  0  0  0  0  0
    0.4446    4.7090    9.8831 C   0  0  0  0  0  0
   -4.4560    2.1637   11.9358 C   0  0  0  0  0  0
   -0.7821    4.4389    9.4227 C   0  0  0  0  0  0
   -1.9435    1.8374   12.0728 C   0  0  0  0  0  0
    1.2752    5.6502    9.1972 C   0  0  0  0  0  0
    0.7946    6.2777    8.0490 C   0  0  0  0  0  0
   -0.4867    5.9889    7.5765 C   0  0  0  0  0  0
   -1.2944    5.0690    8.2483 C   0  0  0  0  0  0
   -3.5329   -0.8771   11.0778 C   0  0  0  0  0  0
   -3.3454    0.5105   10.4841 C   0  0  0  0  0  0
   -4.3303    3.2286   12.9981 C   0  0  0  0  0  0
   -4.8146   -1.2500   11.2883 O   0  0  0  0  0  0
    0.6405    2.6334   12.7504 O   0  0  0  0  0  0
   -5.5722    1.8845   11.4890 O   0  0  0  0  0  0
    1.6371    7.2015    7.4544 O   0  0  0  0  0  0
   -1.0204    6.5459    6.4278 O   0  0  0  0  0  0
   -2.6509   -1.8313   11.4780 C   0  0  0  0  0  0
   -4.7520   -2.4950   11.8279 C   0  0  0  0  0  0
   -3.4445   -2.8967   11.9656 C   0  0  0  0  0  0
   -5.3128    4.2042   13.0503 C   0  0  0  0  0  0
   -3.2687    3.2264   13.8967 C   0  0  0  0  0  0
   -4.1725    5.2237   14.9219 C   0  0  0  0  0  0
   -3.1939    4.2328   14.8639 C   0  0  0  0  0  0
   -5.2320    5.2077   14.0173 C   0  0  0  0  0  0
   -4.0216    6.1476   15.8723 F   0  0  0  0  0  0
    0.9190    8.0262    6.5195 C   0  0  0  0  0  0
    0.0034    7.1820    5.6413 C   0  0  0  0  0  0
    1.8417    4.3198   11.3294 H   0  0  0  0  0  0
  1  2  1  0  0  0
  1  5  2  0  0  0
  1  9  1  0  0  0
  2  3  1  0  0  0
  2 18  2  0  0  0
  3  6  1  0  0  0
  3 33  1  0  0  0
  4  7  1  0  0  0
  4  9  1  0  0  0
  4 15  1  0  0  0
  5  8  1  0  0  0
  6  8  1  0  0  0
  6 10  2  0  0  0
  7 16  1  0  0  0
  7 19  2  0  0  0
  8 13  2  0  0  0
 10 11  1  0  0  0
 11 12  2  0  0  0
 11 20  1  0  0  0
 12 13  1  0  0  0
 12 21  1  0  0  0
 14 15  1  0  0  0
 14 17  1  0  0  0
 14 22  2  0  0  0
 16 25  1  0  0  0
 16 26  2  0  0  0
 17 23  1  0  0  0
 20 31  1  0  0  0
 21 32  1  0  0  0
 22 24  1  0  0  0
 23 24  2  0  0  0
 25 29  2  0  0  0
 26 28  1  0  0  0
 27 28  2  0  0  0
 27 29  1  0  0  0
 27 30  1  0  0  0
 31 32  1  0  0  0
M  END
>  <$CLUSTER>
225

>  <CHROM.0>
162.55766930,172.65802534,82.03618753

>  <CHROM.1>
-2.09333097,3.39669489,10.95312760,-2.75259961,0.97933123,0.39885101

>  <INDEX>
143704

>  <Name>
Asinex ASN 05110337

>  <RI>
-1.67511e+09

>  <Rbt.Current_Directory>
/aloy/home/acomajuncosa/PocketVec_v2/GitLab_repo

>  <Rbt.Executable>
rbdock ($Id: //depot/dev/client3/rdock/2021.1/src/exe/rbdock.cxx#4 $)

>  <Rbt.Library>
libRbt.so (2021.1, Build901 2021/07/19)

>  <Rbt.Parameter_File>
results/run_pocketvec/dock.prm

>  <Rbt.Receptor>
results/run_pocketvec/st_parameters.prm

>  <SCORE>
-13.6905

>  <SCORE.INTER>
-8.54585

>  <SCORE.INTER.CONST>
1

>  <SCORE.INTER.POLAR>
-1.30513

>  <SCORE.INTER.REPUL>
0.282265

>  <SCORE.INTER.ROT>
5

>  <SCORE.INTER.VDW>
-15.9198

>  <SCORE.INTER.norm>
-0.267058

>  <SCORE.INTRA>
3.51097e-12

>  <SCORE.INTRA.DIHEDRAL>
4.82281e-13

>  <SCORE.INTRA.DIHEDRAL.0>
6.79465

>  <SCORE.INTRA.POLAR>
0

>  <SCORE.INTRA.POLAR.0>
0

>  <SCORE.INTRA.REPUL>
0

>  <SCORE.INTRA.REPUL.0>
0

>  <SCORE.INTRA.VDW>
3.26983e-12

>  <SCORE.INTRA.VDW.0>
1.39716

>  <SCORE.INTRA.norm>
1.09718e-13

>  <SCORE.RESTR>
0

>  <SCORE.RESTR.CAVITY>
0

>  <SCORE.RESTR.norm>
0

>  <SCORE.SYSTEM>
-5.14465

>  <SCORE.SYSTEM.CONST>
0

>  <SCORE.SYSTEM.DIHEDRAL>
2.92049

>  <SCORE.SYSTEM.POLAR>
-1.79399

>  <SCORE.SYSTEM.VDW>
-0.505342

>  <SCORE.SYSTEM.norm>
-0.16077

>  <SCORE.heavy>
32

>  <SCORE.norm>
-0.427828

$$$$
Chem T&I AMCLME-05084
  rDOCK(R)          3D
libRbt.so/2021.1/901 2021/07/19
 24 26  0  0  0  0  0  0  0  0999 V2000
   -6.2576    1.2267   16.9139 C   0  0  0  0  0  0
   -4.0541    2.4553   12.2421 C   0  0  0  0  0  0
   -4.8576    1.3660   14.3510 N   0  3  0  0  0  0
   -6.3706    2.4415   15.9879 C   0  0  0  0  0  0
   -5.9059   -0.0284   16.1079 C   0  0  0  0  0  0
   -3.0186    2.6169   11.3714 N   0  0  0  0  0  0
   -5.2380    1.4428   17.8854 O   0  0  0  0  0  0
   -7.5101    1.0430   17.5677 O   0  0  0  0  0  0
   -3.7061    1.5356   13.3969 C   0  0  0  0  0  0
   -5.1566    2.9851   12.1262 O   0  0  0  0  0  0
   -5.1257    2.6305   15.1309 C   0  0  0  0  0  0
   -4.6631    0.1673   15.2498 C   0  0  0  0  0  0
   -2.9322    3.3804   10.1835 C   0  0  0  0  0  0
   -2.6431    4.8582    7.8118 C   0  0  0  0  0  0
   -3.9937    4.1455    9.6929 C   0  0  0  0  0  0
   -1.7233    3.3656    9.4714 C   0  0  0  0  0  0
   -1.5800    4.0998    8.2921 C   0  0  0  0  0  0
   -3.8470    4.8809    8.5115 C   0  0  0  0  0  0
   -2.3844    5.5367    6.6459 O   0  0  0  0  0  0
   -5.8310    1.1124   19.1294 C   0  0  0  0  0  0
   -7.2858    1.4301   18.9157 C   0  0  0  0  0  0
   -3.4390    6.3281    6.1114 C   0  0  0  0  0  0
   -5.6839    1.1850   13.7998 H   0  0  0  0  0  0
   -2.1786    2.1110   11.6125 H   0  0  0  0  0  0
  1  4  1  0  0  0
  1  5  1  0  0  0
  1  7  1  0  0  0
  1  8  1  0  0  0
  2  6  1  0  0  0
  2  9  1  0  0  0
  2 10  2  0  0  0
  3  9  1  0  0  0
  3 11  1  0  0  0
  3 12  1  0  0  0
  3 23  1  0  0  0
  4 11  1  0  0  0
  5 12  1  0  0  0
  6 13  1  0  0  0
  6 24  1  0  0  0
  7 20  1  0  0  0
  8 21  1  0  0  0
 13 15  1  0  0  0
 13 16  2  0  0  0
 14 17  2  0  0  0
 14 18  1  0  0  0
 14 19  1  0  0  0
 15 18  2  0  0  0
 16 17  1  0  0  0
 19 22  1  0  0  0
 20 21  1  0  0  0
M  END
>  <$CLUSTER>
777

>  <CHROM.0>
2.51551953,172.25727628,73.42043478

>  <CHROM.1>
-4.47652189,2.66307042,12.94167470,1.96298202,-0.59283660,2.16493558

>  <INDEX>
508469

>  <Name>
Chem T&I AMCLME-05084

>  <RI>
-1.67511e+09

>  <Rbt.Current_Directory>
/aloy/home/acomajuncosa/PocketVec_v2/GitLab_repo

>  <Rbt.Executable>
rbdock ($Id: //depot/dev/client3/rdock/2021.1/src/exe/rbdock.cxx#4 $)

>  <Rbt.Library>
libRbt.so (2021.1, Build901 2021/07/19)

>  <Rbt.Parameter_File>
results/run_pocketvec/dock.prm

>  <Rbt.Receptor>
results/run_pocketvec/st_parameters.prm

>  <SCORE>
-12.556

>  <SCORE.INTER>
-6.94941

>  <SCORE.INTER.CONST>
1

>  <SCORE.INTER.POLAR>
-1.46951

>  <SCORE.INTER.REPUL>
0

>  <SCORE.INTER.ROT>
4

>  <SCORE.INTER.VDW>
-11.3531

>  <SCORE.INTER.norm>
-0.315882

>  <SCORE.INTRA>
-4.78984e-12

>  <SCORE.INTRA.DIHEDRAL>
-4.32321e-13

>  <SCORE.INTRA.DIHEDRAL.0>
1.77446

>  <SCORE.INTRA.POLAR>
0

>  <SCORE.INTRA.POLAR.0>
0

>  <SCORE.INTRA.REPUL>
0

>  <SCORE.INTRA.REPUL.0>
0

>  <SCORE.INTRA.VDW>
-4.57367e-12

>  <SCORE.INTRA.VDW.0>
1.59071

>  <SCORE.INTRA.norm>
-2.1772e-13

>  <SCORE.RESTR>
0

>  <SCORE.RESTR.CAVITY>
0

>  <SCORE.RESTR.norm>
0

>  <SCORE.SYSTEM>
-5.60663

>  <SCORE.SYSTEM.CONST>
0

>  <SCORE.SYSTEM.DIHEDRAL>
1.21399

>  <SCORE.SYSTEM.POLAR>
-1.74194

>  <SCORE.SYSTEM.VDW>
-0.291023

>  <SCORE.SYSTEM.norm>
-0.254847

>  <SCORE.heavy>
22

>  <SCORE.norm>
-0.570729

$$$$
Bionet 10W-0283
  rDOCK(R)          3D
libRbt.so/2021.1/901 2021/07/19
 22 23  0  0  0  0  0  0  0  0999 V2000
   -5.2249    3.0918   12.3407 N   0  0  0  0  0  0
   -4.1866    3.4449   11.0130 S   0  0  0  0  0  0
   -5.1888    4.0035   13.2113 N   0  0  0  0  0  0
   -4.9072    1.8693   13.0428 C   0  0  0  0  0  0
   -4.7927    2.1050   14.3570 C   0  0  0  0  0  0
   -4.9487    3.5563   14.4787 C   0  0  0  0  0  0
   -4.9539    4.9103   10.3481 C   0  0  0  0  0  0
   -2.8690    3.8165   11.4944 O   0  0  0  0  0  0
   -4.3379    2.4188    9.9967 O   0  0  0  0  0  0
   -4.8725    4.1969   15.5150 O   0  0  0  0  0  0
   -5.9558    4.8180    9.3783 C   0  0  0  0  0  0
   -4.5165    6.1820   10.7797 C   0  0  0  0  0  0
   -4.4912    1.2074   15.5000 C   0  0  0  0  0  0
   -4.8377    0.5607   12.3381 C   0  0  0  0  0  0
   -5.0939    7.3346   10.2429 C   0  0  0  0  0  0
   -6.5278    5.9738    8.8467 C   0  0  0  0  0  0
   -6.0974    7.2296    9.2787 C   0  0  0  0  0  0
   -5.3813    0.0362   17.4037 O   0  0  0  0  0  0
   -5.7324    0.9028   16.3254 C   0  0  0  0  0  0
   -6.7153    8.4645    8.7045 C   0  0  0  0  0  0
   -5.3253    4.9794   12.9902 H   0  0  0  0  0  0
   -6.1799   -0.1393   17.9072 H   0  0  0  0  0  0
  1  2  1  0  0  0
  1  3  1  0  0  0
  1  4  1  0  0  0
  2  7  1  0  0  0
  2  8  2  0  0  0
  2  9  2  0  0  0
  3  6  1  0  0  0
  3 21  1  0  0  0
  4  5  2  0  0  0
  4 14  1  0  0  0
  5  6  1  0  0  0
  5 13  1  0  0  0
  6 10  2  0  0  0
  7 11  1  0  0  0
  7 12  2  0  0  0
 11 16  2  0  0  0
 12 15  1  0  0  0
 13 19  1  0  0  0
 15 17  2  0  0  0
 16 17  1  0  0  0
 17 20  1  0  0  0
 18 19  1  0  0  0
 18 22  1  0  0  0
M  END
>  <$CLUSTER>
107

>  <CHROM.0>
175.06840995,-174.24445452,73.86865979

>  <CHROM.1>
-5.00930852,3.71264969,12.23297293,-1.34178721,1.23948192,-1.08327762

>  <INDEX>
8117

>  <Name>
Bionet 10W-0283

>  <RI>
-1.67511e+09

>  <Rbt.Current_Directory>
/aloy/home/acomajuncosa/PocketVec_v2/GitLab_repo

>  <Rbt.Executable>
rbdock ($Id: //depot/dev/client3/rdock/2021.1/src/exe/rbdock.cxx#4 $)

>  <Rbt.Library>
libRbt.so (2021.1, Build901 2021/07/19)

>  <Rbt.Parameter_File>
results/run_pocketvec/dock.prm

>  <Rbt.Receptor>
results/run_pocketvec/st_parameters.prm

>  <SCORE>
-16.7425

>  <SCORE.INTER>
-11.9739

>  <SCORE.INTER.CONST>
1

>  <SCORE.INTER.POLAR>
-2.45543

>  <SCORE.INTER.REPUL>
0.367027

>  <SCORE.INTER.ROT>
4

>  <SCORE.INTER.VDW>
-14.8606

>  <SCORE.INTER.norm>
-0.598695

>  <SCORE.INTRA>
-1.27764e-12

>  <SCORE.INTRA.DIHEDRAL>
-1.10667e-12

>  <SCORE.INTRA.DIHEDRAL.0>
2.55603

>  <SCORE.INTRA.POLAR>
0

>  <SCORE.INTRA.POLAR.0>
0

>  <SCORE.INTRA.REPUL>
0

>  <SCORE.INTRA.REPUL.0>
0

>  <SCORE.INTRA.VDW>
-7.2431e-13

>  <SCORE.INTRA.VDW.0>
-2.3876

>  <SCORE.INTRA.norm>
-6.38822e-14

>  <SCORE.RESTR>
0

>  <SCORE.RESTR.CAVITY>
0

>  <SCORE.RESTR.norm>
0

>  <SCORE.SYSTEM>
-4.76857

>  <SCORE.SYSTEM.CONST>
0

>  <SCORE.SYSTEM.DIHEDRAL>
1.18029

>  <SCORE.SYSTEM.POLAR>
-1.74563

>  <SCORE.SYSTEM.VDW>
0.576446

>  <SCORE.SYSTEM.norm>
-0.238428

>  <SCORE.heavy>
20

>  <SCORE.norm>
-0.837123

$$$$
ASDI 100018405
  rDOCK(R)          3D
libRbt.so/2021.1/901 2021/07/19
 20 21  0  0  0  0  0  0  0  0999 V2000
   -4.6849    0.2163   10.6378 S   0  0  0  0  0  0
   -5.3847    1.2396   11.8229 N   0  0  0  0  0  0
   -4.5153    2.1353   12.5411 C   0  0  0  0  0  0
   -4.2733    1.9278   13.9056 C   0  0  0  0  0  0
   -3.3928    2.7637   14.6001 C   0  0  0  0  0  0
   -4.8570    0.8388   14.5180 O   0  0  0  0  0  0
   -5.7586   -0.5012    9.9778 O   0  0  0  0  0  0
   -3.6845    0.9226    9.8644 O   0  0  0  0  0  0
   -3.9022    3.2056   11.8850 C   0  0  0  0  0  0
   -2.7835    3.8294   13.9383 C   0  0  0  0  0  0
   -3.8444   -0.9559   11.6795 C   0  0  0  0  0  0
   -5.5784    1.0780   15.6666 C   0  0  0  0  0  0
   -3.0416    4.0521   12.5848 C   0  0  0  0  0  0
   -1.7253    4.8524   14.7950 Cl  0  0  0  0  0  0
   -5.4163    0.1666   16.7121 C   0  0  0  0  0  0
   -6.4935    2.1286   15.7862 C   0  0  0  0  0  0
   -6.1425    0.3270   17.8922 C   0  0  0  0  0  0
   -7.2171    2.2848   16.9692 C   0  0  0  0  0  0
   -7.0401    1.3876   18.0229 C   0  0  0  0  0  0
   -6.3762    1.2150   12.0119 H   0  0  0  0  0  0
  1  2  1  0  0  0
  1  7  2  0  0  0
  1  8  2  0  0  0
  1 11  1  0  0  0
  2  3  1  0  0  0
  2 20  1  0  0  0
  3  4  2  0  0  0
  3  9  1  0  0  0
  4  5  1  0  0  0
  4  6  1  0  0  0
  5 10  2  0  0  0
  6 12  1  0  0  0
  9 13  2  0  0  0
 10 13  1  0  0  0
 10 14  1  0  0  0
 12 15  2  0  0  0
 12 16  1  0  0  0
 15 17  1  0  0  0
 16 18  2  0  0  0
 17 19  2  0  0  0
 18 19  1  0  0  0
M  END
>  <$CLUSTER>
839

>  <CHROM.0>
1.79711361,171.91847369,74.00117889

>  <CHROM.1>
-4.50372248,1.75816183,13.64235656,1.33432719,-0.81347461,-1.97554764

>  <INDEX>
3627

>  <Name>
ASDI 100018405

>  <RI>
-1.67511e+09

>  <Rbt.Current_Directory>
/aloy/home/acomajuncosa/PocketVec_v2/GitLab_repo

>  <Rbt.Executable>
rbdock ($Id: //depot/dev/client3/rdock/2021.1/src/exe/rbdock.cxx#4 $)

>  <Rbt.Library>
libRbt.so (2021.1, Build901 2021/07/19)

>  <Rbt.Parameter_File>
results/run_pocketvec/dock.prm

>  <Rbt.Receptor>
results/run_pocketvec/st_parameters.prm

>  <SCORE>
-18.5242

>  <SCORE.INTER>
-12.9134

>  <SCORE.INTER.CONST>
1

>  <SCORE.INTER.POLAR>
-0.855628

>  <SCORE.INTER.REPUL>
0

>  <SCORE.INTER.ROT>
4

>  <SCORE.INTER.VDW>
-19.4042

>  <SCORE.INTER.norm>
-0.679651

>  <SCORE.INTRA>
-2.89546e-13

>  <SCORE.INTRA.DIHEDRAL>
-8.45546e-13

>  <SCORE.INTRA.DIHEDRAL.0>
17.6747

>  <SCORE.INTRA.POLAR>
0

>  <SCORE.INTRA.POLAR.0>
0

>  <SCORE.INTRA.REPUL>
0

>  <SCORE.INTRA.REPUL.0>
0

>  <SCORE.INTRA.VDW>
1.33227e-13

>  <SCORE.INTRA.VDW.0>
-2.13443

>  <SCORE.INTRA.norm>
-1.52393e-14

>  <SCORE.RESTR>
0

>  <SCORE.RESTR.CAVITY>
0

>  <SCORE.RESTR.norm>
0

>  <SCORE.SYSTEM>
-5.61085

>  <SCORE.SYSTEM.CONST>
0

>  <SCORE.SYSTEM.DIHEDRAL>
1.30759

>  <SCORE.SYSTEM.POLAR>
-1.74672

>  <SCORE.SYSTEM.VDW>
-0.32579

>  <SCORE.SYSTEM.norm>
-0.295308

>  <SCORE.heavy>
19

>  <SCORE.norm>
-0.974959

$$$$
