Enamine T0505-3993
  rDOCK(R)          3D
libRbt.so/2021.1/901 2021/07/19
 28 30  0  0  0  0  0  0  0  0999 V2000
   -3.5104    3.7061    9.9475 S   0  0  0  0  0  0
   -4.3453    6.6741   12.4442 C   0  0  0  0  0  0
   -3.1551    4.1104   11.5515 N   0  0  0  0  0  0
   -4.8379    5.3645   12.8997 C   0  0  0  0  0  0
   -4.2337    4.1672   12.4933 C   0  0  0  0  0  0
   -4.3768    5.1565    9.3557 C   0  0  0  0  0  0
   -5.2943    7.5456   12.0134 N   0  0  0  0  0  0
   -2.2427    3.6204    9.2383 O   0  0  0  0  0  0
   -4.4196    2.5727    9.9195 O   0  0  0  0  0  0
   -3.1485    6.9432   12.4452 O   0  0  0  0  0  0
   -5.7647    5.2006    9.4815 C   0  0  0  0  0  0
   -3.6685    6.1849    8.7534 C   0  0  0  0  0  0
   -5.2266    8.8545   11.5156 C   0  0  0  0  0  0
   -5.7495    7.3620    8.3967 C   0  0  0  0  0  0
   -6.4511    6.3168    8.9988 C   0  0  0  0  0  0
   -4.3611    7.2975    8.2738 C   0  0  0  0  0  0
   -6.4832    8.3899    7.9642 F   0  0  0  0  0  0
   -5.9254    5.3344   13.7867 C   0  0  0  0  0  0
   -4.7389    2.9509   12.9701 C   0  0  0  0  0  0
   -6.4167    9.5011   11.1542 C   0  0  0  0  0  0
   -4.0152    9.5361   11.3640 C   0  0  0  0  0  0
   -6.4148    4.1176   14.2594 C   0  0  0  0  0  0
   -5.8215    2.9252   13.8513 C   0  0  0  0  0  0
   -6.3977   10.8051   10.6519 C   0  0  0  0  0  0
   -3.9985   10.8420   10.8615 C   0  0  0  0  0  0
   -5.1870   11.4746   10.5055 C   0  0  0  0  0  0
   -2.2068    4.3071   11.8384 H   0  0  0  0  0  0
   -6.2342    7.1786   12.0612 H   0  0  0  0  0  0
  1  3  1  0  0  0
  1  6  1  0  0  0
  1  8  2  0  0  0
  1  9  2  0  0  0
  2  4  1  0  0  0
  2  7  1  0  0  0
  2 10  2  0  0  0
  3  5  1  0  0  0
  3 27  1  0  0  0
  4  5  2  0  0  0
  4 18  1  0  0  0
  5 19  1  0  0  0
  6 11  2  0  0  0
  6 12  1  0  0  0
  7 13  1  0  0  0
  7 28  1  0  0  0
 11 15  1  0  0  0
 12 16  2  0  0  0
 13 20  2  0  0  0
 13 21  1  0  0  0
 14 15  2  0  0  0
 14 16  1  0  0  0
 14 17  1  0  0  0
 18 22  2  0  0  0
 19 23  2  0  0  0
 20 24  1  0  0  0
 21 25  2  0  0  0
 22 23  1  0  0  0
 24 26  2  0  0  0
 25 26  1  0  0  0
M  END
>  <$CLUSTER>
958

>  <CHROM.0>
176.41121975,171.33183293,73.67988816

>  <CHROM.1>
-4.76647437,6.25989887,10.86024628,-0.89278964,1.29028242,-0.87201426

>  <INDEX>
411247

>  <Name>
Enamine T0505-3993

>  <RI>
-2.07807e+09

>  <Rbt.Current_Directory>
/aloy/home/acomajuncosa/PocketVec_v2/GitLab_repo

>  <Rbt.Executable>
rbdock ($Id: //depot/dev/client3/rdock/2021.1/src/exe/rbdock.cxx#4 $)

>  <Rbt.Library>
libRbt.so (2021.1, Build901 2021/07/19)

>  <Rbt.Parameter_File>
examples/2_pocketvec/rDock_results/dock.prm

>  <Rbt.Receptor>
examples/2_pocketvec/rDock_results/st_parameters.prm

>  <SCORE>
-12.3137

>  <SCORE.INTER>
-6.85687

>  <SCORE.INTER.CONST>
1

>  <SCORE.INTER.POLAR>
-0.73971

>  <SCORE.INTER.REPUL>
0.117839

>  <SCORE.INTER.ROT>
5

>  <SCORE.INTER.VDW>
-15.331

>  <SCORE.INTER.norm>
-0.263726

>  <SCORE.INTRA>
-5.13367e-13

>  <SCORE.INTRA.DIHEDRAL>
-1.33937e-12

>  <SCORE.INTRA.DIHEDRAL.0>
21.4962

>  <SCORE.INTRA.POLAR>
0

>  <SCORE.INTRA.POLAR.0>
0

>  <SCORE.INTRA.REPUL>
0

>  <SCORE.INTRA.REPUL.0>
0

>  <SCORE.INTRA.VDW>
1.56319e-13

>  <SCORE.INTRA.VDW.0>
-6.79668

>  <SCORE.INTRA.norm>
-1.97449e-14

>  <SCORE.RESTR>
0

>  <SCORE.RESTR.CAVITY>
0

>  <SCORE.RESTR.norm>
0

>  <SCORE.SYSTEM>
-5.45684

>  <SCORE.SYSTEM.CONST>
0

>  <SCORE.SYSTEM.DIHEDRAL>
1.33747

>  <SCORE.SYSTEM.POLAR>
-1.74408

>  <SCORE.SYSTEM.VDW>
-0.195697

>  <SCORE.SYSTEM.norm>
-0.209878

>  <SCORE.heavy>
26

>  <SCORE.norm>
-0.473604

$$$$
Chem T&I AMSACS-17229
  rDOCK(R)          3D
libRbt.so/2021.1/901 2021/07/19
 23 25  0  0  0  0  0  0  0  0999 V2000
   -3.4490    0.8868   10.9274 S   0  0  0  0  0  0
   -2.2891    2.1993   10.7332 C   0  0  0  0  0  0
   -1.9576    3.0928   11.7852 C   0  0  0  0  0  0
   -4.8568    1.7513   11.3425 N   0  0  0  0  0  0
   -2.4424    3.0919   13.0377 N   0  0  0  0  0  0
   -1.7121    4.3481   13.8383 S   0  0  0  0  0  0
   -0.9519    4.1980   11.5521 C   0  0  0  0  0  0
   -4.9424    2.3610   12.6493 C   0  0  0  0  0  0
   -0.7434    4.9594   12.6373 N   0  0  0  0  0  0
   -3.6601    0.2767    9.6294 O   0  0  0  0  0  0
   -3.0056    0.1017   12.0611 O   0  0  0  0  0  0
   -1.6394    2.4014    9.5027 C   0  0  0  0  0  0
   -4.8739    3.7586   12.7858 C   0  0  0  0  0  0
   -0.7004    3.4390    9.2958 C   0  0  0  0  0  0
   -0.3283    4.3589   10.2914 C   0  0  0  0  0  0
   -5.0617    1.5437   13.7779 C   0  0  0  0  0  0
   -4.9272    4.3188   14.0661 C   0  0  0  0  0  0
   -5.1140    2.1145   15.0480 C   0  0  0  0  0  0
   -5.0456    3.4982   15.1916 C   0  0  0  0  0  0
   -4.7582    4.4717   11.6193 O   0  0  0  0  0  0
   -5.2424    1.2374   16.2503 C   0  0  0  0  0  0
   -4.6510    5.8859   11.7304 C   0  0  0  0  0  0
   -5.6192    1.8363   10.6853 H   0  0  0  0  0  0
  1  2  1  0  0  0
  1  4  1  0  0  0
  1 10  2  0  0  0
  1 11  2  0  0  0
  2  3  1  0  0  0
  2 12  2  0  0  0
  3  5  2  0  0  0
  3  7  1  0  0  0
  4  8  1  0  0  0
  4 23  1  0  0  0
  5  6  1  0  0  0
  6  9  1  0  0  0
  7  9  2  0  0  0
  7 15  1  0  0  0
  8 13  2  0  0  0
  8 16  1  0  0  0
 12 14  1  0  0  0
 13 17  1  0  0  0
 13 20  1  0  0  0
 14 15  2  0  0  0
 16 18  2  0  0  0
 17 19  2  0  0  0
 18 19  1  0  0  0
 18 21  1  0  0  0
 20 22  1  0  0  0
M  END
>  <$CLUSTER>
797

>  <CHROM.0>
175.68582244,170.80673933,73.81128198

>  <CHROM.1>
-3.24255127,2.85994195,12.25815387,0.49116865,-0.76365687,-2.38287785

>  <INDEX>
520507

>  <Name>
Chem T&I AMSACS-17229

>  <RI>
-2.07807e+09

>  <Rbt.Current_Directory>
/aloy/home/acomajuncosa/PocketVec_v2/GitLab_repo

>  <Rbt.Executable>
rbdock ($Id: //depot/dev/client3/rdock/2021.1/src/exe/rbdock.cxx#4 $)

>  <Rbt.Library>
libRbt.so (2021.1, Build901 2021/07/19)

>  <Rbt.Parameter_File>
examples/2_pocketvec/rDock_results/dock.prm

>  <Rbt.Receptor>
examples/2_pocketvec/rDock_results/st_parameters.prm

>  <SCORE>
-15.6253

>  <SCORE.INTER>
-10.1708

>  <SCORE.INTER.CONST>
1

>  <SCORE.INTER.POLAR>
-0.894427

>  <SCORE.INTER.REPUL>
0

>  <SCORE.INTER.ROT>
4

>  <SCORE.INTER.VDW>
-16.5298

>  <SCORE.INTER.norm>
-0.46231

>  <SCORE.INTRA>
-1.26876e-12

>  <SCORE.INTRA.DIHEDRAL>
4.9738e-14

>  <SCORE.INTRA.DIHEDRAL.0>
13.7616

>  <SCORE.INTRA.POLAR>
0

>  <SCORE.INTRA.POLAR.0>
0

>  <SCORE.INTRA.REPUL>
0

>  <SCORE.INTRA.REPUL.0>
0

>  <SCORE.INTRA.VDW>
-1.29363e-12

>  <SCORE.INTRA.VDW.0>
-1.5123

>  <SCORE.INTRA.norm>
-5.7671e-14

>  <SCORE.RESTR>
0

>  <SCORE.RESTR.CAVITY>
0

>  <SCORE.RESTR.norm>
0

>  <SCORE.SYSTEM>
-5.45452

>  <SCORE.SYSTEM.CONST>
0

>  <SCORE.SYSTEM.DIHEDRAL>
1.4073

>  <SCORE.SYSTEM.POLAR>
-1.74516

>  <SCORE.SYSTEM.VDW>
-0.224621

>  <SCORE.SYSTEM.norm>
-0.247933

>  <SCORE.heavy>
22

>  <SCORE.norm>
-0.710243

$$$$
Chemical Block A3692/0156694
  rDOCK(R)          3D
libRbt.so/2021.1/901 2021/07/19
 27 29  0  0  0  0  0  0  0  0999 V2000
   -5.1722    8.3025    9.6096 C   0  0  0  0  0  0
   -6.4381    8.5931    9.2802 N   0  0  0  0  0  0
   -4.6257    7.0788    9.6862 N   0  0  0  0  0  0
   -6.7680    6.2310    9.0501 N   0  0  0  0  0  0
   -7.1787    7.5092    9.0142 C   0  0  0  0  0  0
   -5.6966    1.3501   16.4526 N   0  0  0  0  0  0
   -5.4738    6.0750    9.3888 C   0  0  0  0  0  0
   -6.3304    1.3624   18.5699 N   0  0  0  0  0  0
   -5.7653    0.1426   18.3023 N   0  0  0  0  0  0
   -4.7138    2.9189   11.0465 C   0  0  0  0  0  0
   -5.3928    0.1464   17.0427 C   0  0  0  0  0  0
   -6.2845    2.0715   17.4649 C   0  0  0  0  0  0
   -4.3023    9.3682    9.9119 N   0  0  0  0  0  0
   -5.4572    1.7572   15.1014 C   0  0  0  0  0  0
   -4.9936    2.5552   12.4735 C   0  0  0  0  0  0
   -5.1465    4.1937   10.7961 O   0  0  0  0  0  0
   -4.1764    2.1718   10.2410 O   0  0  0  0  0  0
   -5.8371    3.0290   14.6774 C   0  0  0  0  0  0
   -4.8430    0.8823   14.2091 C   0  0  0  0  0  0
   -5.6047    3.4294   13.3578 C   0  0  0  0  0  0
   -4.6084    1.2755   12.8906 C   0  0  0  0  0  0
   -8.4635    7.8076    8.6819 N   0  0  0  0  0  0
   -4.9463    4.6763    9.4768 C   0  0  0  0  0  0
   -4.7899   10.7495    9.9286 C   0  0  0  0  0  0
   -2.8843    9.1811   10.2073 C   0  0  0  0  0  0
   -9.1134    7.0662    8.4605 H   0  0  0  0  0  0
   -8.7675    8.7704    8.6565 H   0  0  0  0  0  0
  1  2  2  0  0  0
  1  3  1  0  0  0
  1 13  1  0  0  0
  2  5  1  0  0  0
  3  7  2  0  0  0
  4  5  2  0  0  0
  4  7  1  0  0  0
  5 22  1  0  0  0
  6 11  1  0  0  0
  6 12  1  0  0  0
  6 14  1  0  0  0
  7 23  1  0  0  0
  8  9  1  0  0  0
  8 12  2  0  0  0
  9 11  2  0  0  0
 10 15  1  0  0  0
 10 16  1  0  0  0
 10 17  2  0  0  0
 13 24  1  0  0  0
 13 25  1  0  0  0
 14 18  2  0  0  0
 14 19  1  0  0  0
 15 20  2  0  0  0
 15 21  1  0  0  0
 16 23  1  0  0  0
 18 20  1  0  0  0
 19 21  2  0  0  0
 22 26  1  0  0  0
 22 27  1  0  0  0
M  END
>  <$CLUSTER>
187

>  <CHROM.0>
-0.98453127,174.08462215,71.72016208

>  <CHROM.1>
-5.43565752,4.58709307,12.21308203,1.49052743,1.43975148,-0.70227531

>  <INDEX>
118465

>  <Name>
Chemical Block A3692/0156694

>  <RI>
-2.07807e+09

>  <Rbt.Current_Directory>
/aloy/home/acomajuncosa/PocketVec_v2/GitLab_repo

>  <Rbt.Executable>
rbdock ($Id: //depot/dev/client3/rdock/2021.1/src/exe/rbdock.cxx#4 $)

>  <Rbt.Library>
libRbt.so (2021.1, Build901 2021/07/19)

>  <Rbt.Parameter_File>
examples/2_pocketvec/rDock_results/dock.prm

>  <Rbt.Receptor>
examples/2_pocketvec/rDock_results/st_parameters.prm

>  <SCORE>
-14.6832

>  <SCORE.INTER>
-9.09936

>  <SCORE.INTER.CONST>
1

>  <SCORE.INTER.POLAR>
-0.969763

>  <SCORE.INTER.REPUL>
0

>  <SCORE.INTER.ROT>
6

>  <SCORE.INTER.VDW>
-17.2022

>  <SCORE.INTER.norm>
-0.363974

>  <SCORE.INTRA>
1.79146e-12

>  <SCORE.INTRA.DIHEDRAL>
-2.40696e-13

>  <SCORE.INTRA.DIHEDRAL.0>
0.79327

>  <SCORE.INTRA.POLAR>
0

>  <SCORE.INTRA.POLAR.0>
0

>  <SCORE.INTRA.REPUL>
0

>  <SCORE.INTRA.REPUL.0>
0

>  <SCORE.INTRA.VDW>
1.9118e-12

>  <SCORE.INTRA.VDW.0>
1.98097

>  <SCORE.INTRA.norm>
7.16582e-14

>  <SCORE.RESTR>
0

>  <SCORE.RESTR.CAVITY>
0

>  <SCORE.RESTR.norm>
0

>  <SCORE.SYSTEM>
-5.58383

>  <SCORE.SYSTEM.CONST>
0

>  <SCORE.SYSTEM.DIHEDRAL>
0.898735

>  <SCORE.SYSTEM.POLAR>
-1.72777

>  <SCORE.SYSTEM.VDW>
-0.158783

>  <SCORE.SYSTEM.norm>
-0.223353

>  <SCORE.heavy>
25

>  <SCORE.norm>
-0.587328

$$$$
Life Chemicals F0778-0231
  rDOCK(R)          3D
libRbt.so/2021.1/901 2021/07/19
 31 34  0  0  0  0  0  0  0  0999 V2000
   -2.4061    5.6139   10.2606 C   0  0  0  0  0  0
   -1.7891    6.8025   10.7004 N   0  0  0  0  0  0
   -1.1422    7.4384    9.6760 N   0  0  0  0  0  0
   -2.3300    5.6605    8.8844 C   0  0  0  0  0  0
   -2.8814    4.6570   11.1432 N   0  0  0  0  0  0
   -1.5432    6.7814    8.5993 C   0  0  0  0  0  0
   -1.6901    9.2535   15.7951 N   0  3  0  0  0  0
   -3.6186    3.5416   10.7799 C   0  0  0  0  0  0
   -3.9247    2.6782   11.9789 C   0  0  0  0  0  0
   -1.7690    7.4019   11.9938 C   0  0  0  0  0  0
   -1.7035    8.6534   14.5045 C   0  0  0  0  0  0
   -4.1934    1.3005   11.6998 C   0  0  0  0  0  0
   -4.5012    0.4287   12.7465 C   0  0  0  0  0  0
   -2.0017    5.7009    6.2558 S   0  0  0  0  0  0
   -2.5793    8.9988   16.6265 O   0  5  0  0  0  0
   -0.7461   10.0302   16.0137 O   0  0  0  0  0  0
   -4.0337    3.2369    9.6673 O   0  0  0  0  0  0
   -4.5637    0.9046   14.0544 C   0  0  0  0  0  0
   -2.7369    4.8373    7.7308 C   0  0  0  0  0  0
   -4.0124    3.1286   13.2734 C   0  0  0  0  0  0
   -0.7497    8.3150   12.3093 C   0  0  0  0  0  0
   -2.7731    7.1505   12.9357 C   0  0  0  0  0  0
   -2.7340    7.7701   14.1878 C   0  0  0  0  0  0
   -0.7154    8.9286   13.5629 C   0  0  0  0  0  0
   -4.3224    2.2522   14.3171 C   0  0  0  0  0  0
   -1.1942    7.0757    7.2019 C   0  0  0  0  0  0
   -4.7566   -0.9113   12.5703 O   0  0  0  0  0  0
   -4.8847   -0.0290   15.0171 O   0  0  0  0  0  0
   -4.6955   -1.4257   11.2453 C   0  0  0  0  0  0
   -4.9630    0.4183   16.3646 C   0  0  0  0  0  0
   -2.6754    4.7816   12.1237 H   0  0  0  0  0  0
  1  2  1  0  0  0
  1  4  2  0  0  0
  1  5  1  0  0  0
  2  3  1  0  0  0
  2 10  1  0  0  0
  3  6  2  0  0  0
  4  6  1  0  0  0
  4 19  1  0  0  0
  5  8  1  0  0  0
  5 31  1  0  0  0
  6 26  1  0  0  0
  7 11  1  0  0  0
  7 15  1  0  0  0
  7 16  2  0  0  0
  8  9  1  0  0  0
  8 17  2  0  0  0
  9 12  1  0  0  0
  9 20  2  0  0  0
 10 21  1  0  0  0
 10 22  2  0  0  0
 11 23  2  0  0  0
 11 24  1  0  0  0
 12 13  2  0  0  0
 13 18  1  0  0  0
 13 27  1  0  0  0
 14 19  1  0  0  0
 14 26  1  0  0  0
 18 25  2  0  0  0
 18 28  1  0  0  0
 20 25  1  0  0  0
 21 24  2  0  0  0
 22 23  1  0  0  0
 27 29  1  0  0  0
 28 30  1  0  0  0
M  END
>  <$CLUSTER>
440

>  <CHROM.0>
177.90834754,171.86670576,73.96084031

>  <CHROM.1>
-2.84865062,4.88034096,11.88094392,-0.17053026,-1.18802787,-1.85588005

>  <INDEX>
289437

>  <Name>
Life Chemicals F0778-0231

>  <RI>
-2.07807e+09

>  <Rbt.Current_Directory>
/aloy/home/acomajuncosa/PocketVec_v2/GitLab_repo

>  <Rbt.Executable>
rbdock ($Id: //depot/dev/client3/rdock/2021.1/src/exe/rbdock.cxx#4 $)

>  <Rbt.Library>
libRbt.so (2021.1, Build901 2021/07/19)

>  <Rbt.Parameter_File>
examples/2_pocketvec/rDock_results/dock.prm

>  <Rbt.Receptor>
examples/2_pocketvec/rDock_results/st_parameters.prm

>  <SCORE>
-11.0956

>  <SCORE.INTER>
-5.63705

>  <SCORE.INTER.CONST>
1

>  <SCORE.INTER.POLAR>
-0.506717

>  <SCORE.INTER.REPUL>
0.00269267

>  <SCORE.INTER.ROT>
5

>  <SCORE.INTER.VDW>
-14.3277

>  <SCORE.INTER.norm>
-0.187902

>  <SCORE.INTRA>
6.82297e-12

>  <SCORE.INTRA.DIHEDRAL>
-3.58824e-13

>  <SCORE.INTRA.DIHEDRAL.0>
5.78196

>  <SCORE.INTRA.POLAR>
0

>  <SCORE.INTRA.POLAR.0>
0

>  <SCORE.INTRA.REPUL>
3.03715e-14

>  <SCORE.INTRA.REPUL.0>
0.0197536

>  <SCORE.INTRA.VDW>
6.85052e-12

>  <SCORE.INTRA.VDW.0>
3.88109

>  <SCORE.INTRA.norm>
2.27432e-13

>  <SCORE.RESTR>
0

>  <SCORE.RESTR.CAVITY>
0

>  <SCORE.RESTR.norm>
0

>  <SCORE.SYSTEM>
-5.45852

>  <SCORE.SYSTEM.CONST>
0

>  <SCORE.SYSTEM.DIHEDRAL>
1.31495

>  <SCORE.SYSTEM.POLAR>
-1.74639

>  <SCORE.SYSTEM.VDW>
-0.178261

>  <SCORE.SYSTEM.norm>
-0.181951

>  <SCORE.heavy>
30

>  <SCORE.norm>
-0.369852

$$$$
Princeton Biomolecular OSSK_459353
  rDOCK(R)          3D
libRbt.so/2021.1/901 2021/07/19
 26 28  0  0  0  0  0  0  0  0999 V2000
   -4.6563    3.2177   12.1887 C   0  0  0  0  0  0
   -4.4380    4.1150   11.2213 C   0  0  0  0  0  0
   -4.2368    1.8102   11.9848 C   0  0  0  0  0  0
   -3.7979    3.7951    9.9440 C   0  0  0  0  0  0
   -3.6228    1.5004   10.7607 C   0  0  0  0  0  0
   -3.4101    2.4764    9.7650 O   0  0  0  0  0  0
   -4.3979    0.7504   12.9078 C   0  0  0  0  0  0
   -4.8902    5.6283   11.2986 C   0  0  0  0  0  0
   -3.7677    6.5272   11.7975 C   0  0  0  0  0  0
   -4.9966    1.0381   14.1076 O   0  0  0  0  0  0
   -3.1779    0.2188   10.4338 C   0  0  0  0  0  0
   -3.9495   -0.5439   12.5788 C   0  0  0  0  0  0
   -3.6180    4.6502    9.0847 O   0  0  0  0  0  0
   -3.3444   -0.8056   11.3504 C   0  0  0  0  0  0
   -2.6581    6.0293   12.0853 O   0  0  0  0  0  0
   -5.3230    3.6675   13.4571 C   0  0  0  0  0  0
   -5.1719   -0.0096   15.0582 C   0  0  0  0  0  0
   -7.2459    0.6114   16.3653 C   0  0  0  0  0  0
   -7.8704    1.1632   17.4857 C   0  0  0  0  0  0
   -4.1346    7.7565   11.8608 O   0  5  0  0  0  0
   -5.8508    0.5815   16.2802 C   0  0  0  0  0  0
   -9.2036    1.1501   17.4886 F   0  0  0  0  0  0
   -5.7117    1.6675   18.4418 C   0  0  0  0  0  0
   -2.8769   -2.1862   11.0233 C   0  0  0  0  0  0
   -7.1031    1.6901   18.5240 C   0  0  0  0  0  0
   -5.0860    1.1160   17.3221 C   0  0  0  0  0  0
  1  2  2  0  0  0
  1  3  1  0  0  0
  1 16  1  0  0  0
  2  4  1  0  0  0
  2  8  1  0  0  0
  3  5  2  0  0  0
  3  7  1  0  0  0
  4  6  1  0  0  0
  4 13  2  0  0  0
  5  6  1  0  0  0
  5 11  1  0  0  0
  7 10  1  0  0  0
  7 12  2  0  0  0
  8  9  1  0  0  0
  9 15  2  0  0  0
  9 20  1  0  0  0
 10 17  1  0  0  0
 11 14  2  0  0  0
 12 14  1  0  0  0
 14 24  1  0  0  0
 17 21  1  0  0  0
 18 19  2  0  0  0
 18 21  1  0  0  0
 19 22  1  0  0  0
 19 25  1  0  0  0
 21 26  2  0  0  0
 23 25  2  0  0  0
 23 26  1  0  0  0
M  END
>  <$CLUSTER>
897

>  <CHROM.0>
2.57860280,171.34009652,73.17361037

>  <CHROM.1>
-4.82018260,2.27446426,13.26128436,0.53964720,1.06968467,-0.14054390

>  <INDEX>
584174

>  <Name>
Princeton Biomolecular OSSK_459353

>  <RI>
-2.07807e+09

>  <Rbt.Current_Directory>
/aloy/home/acomajuncosa/PocketVec_v2/GitLab_repo

>  <Rbt.Executable>
rbdock ($Id: //depot/dev/client3/rdock/2021.1/src/exe/rbdock.cxx#4 $)

>  <Rbt.Library>
libRbt.so (2021.1, Build901 2021/07/19)

>  <Rbt.Parameter_File>
examples/2_pocketvec/rDock_results/dock.prm

>  <Rbt.Receptor>
examples/2_pocketvec/rDock_results/st_parameters.prm

>  <SCORE>
2.68591

>  <SCORE.INTER>
8.07471

>  <SCORE.INTER.CONST>
1

>  <SCORE.INTER.POLAR>
-0.0755342

>  <SCORE.INTER.REPUL>
0

>  <SCORE.INTER.ROT>
5

>  <SCORE.INTER.VDW>
-2.06847

>  <SCORE.INTER.norm>
0.310566

>  <SCORE.INTRA>
8.13793e-13

>  <SCORE.INTRA.DIHEDRAL>
1.20348e-13

>  <SCORE.INTRA.DIHEDRAL.0>
2.74998

>  <SCORE.INTRA.POLAR>
0

>  <SCORE.INTRA.POLAR.0>
0

>  <SCORE.INTRA.REPUL>
0

>  <SCORE.INTRA.REPUL.0>
0

>  <SCORE.INTRA.VDW>
7.53619e-13

>  <SCORE.INTRA.VDW.0>
-0.539126

>  <SCORE.INTRA.norm>
3.12997e-14

>  <SCORE.RESTR>
0.215342

>  <SCORE.RESTR.CAVITY>
0.215342

>  <SCORE.RESTR.norm>
0.00828238

>  <SCORE.SYSTEM>
-5.60414

>  <SCORE.SYSTEM.CONST>
0

>  <SCORE.SYSTEM.DIHEDRAL>
1.25571

>  <SCORE.SYSTEM.POLAR>
-1.7399

>  <SCORE.SYSTEM.VDW>
-0.316334

>  <SCORE.SYSTEM.norm>
-0.215544

>  <SCORE.heavy>
26

>  <SCORE.norm>
0.103304

$$$$
Toslab 44086
  rDOCK(R)          3D
libRbt.so/2021.1/901 2021/07/19
 24 26  0  0  0  0  0  0  0  0999 V2000
   -3.8481    4.8023   12.6645 C   0  0  0  0  0  0
   -3.7336    6.1730   12.7955 N   0  0  0  0  0  0
   -4.8109    4.5590   11.7935 N   0  0  0  0  0  0
   -4.6393    6.7573   11.9804 N   0  0  0  0  0  0
   -5.2852    5.7716   11.3831 N   0  0  0  0  0  0
   -3.0545    3.7513   13.3595 C   0  0  0  0  0  0
   -2.5884    2.6989   12.4016 N   0  3  0  0  0  0
   -2.8402    7.0078   13.6137 C   0  0  0  0  0  0
   -3.8836    3.0553   14.4353 C   0  0  0  0  0  0
   -3.2994    2.8281   15.7347 C   0  0  0  0  0  0
   -5.1889    2.5701   14.2568 C   0  0  0  0  0  0
   -5.8947    1.9303   15.2763 C   0  0  0  0  0  0
   -4.0076    2.1882   16.7522 C   0  0  0  0  0  0
   -5.3069    1.7401   16.5225 C   0  0  0  0  0  0
   -3.5920    2.0370   11.4904 C   0  0  0  0  0  0
   -1.3729    3.1542   11.5721 C   0  0  0  0  0  0
   -1.3915    6.8831   13.1074 C   0  0  0  0  0  0
   -2.9280    6.6264   15.1046 C   0  0  0  0  0  0
   -3.2262    8.5087   13.5211 C   0  0  0  0  0  0
   -6.0640    1.0596   17.6150 C   0  0  0  0  0  0
   -0.7861    2.0330   10.7533 C   0  0  0  0  0  0
   -3.0490    0.9291   10.6964 C   0  0  0  0  0  0
   -1.8447    1.3744    9.8741 C   0  0  0  0  0  0
   -2.3441    1.9699   13.0565 H   0  0  0  0  0  0
  1  2  1  0  0  0
  1  3  2  0  0  0
  1  6  1  0  0  0
  2  4  1  0  0  0
  2  8  1  0  0  0
  3  5  1  0  0  0
  4  5  2  0  0  0
  6  7  1  0  0  0
  6  9  1  0  0  0
  7 15  1  0  0  0
  7 16  1  0  0  0
  7 24  1  0  0  0
  8 17  1  0  0  0
  8 18  1  0  0  0
  8 19  1  0  0  0
  9 10  1  0  0  0
  9 11  2  0  0  0
 10 13  2  0  0  0
 11 12  1  0  0  0
 12 14  2  0  0  0
 13 14  1  0  0  0
 14 20  1  0  0  0
 15 22  1  0  0  0
 16 21  1  0  0  0
 21 23  1  0  0  0
 22 23  1  0  0  0
M  END
>  <$CLUSTER>
221

>  <CHROM.0>
1.99774726,171.50822243,73.79222529

>  <CHROM.1>
-3.56539757,3.87465208,13.30083865,0.72206077,1.10001775,0.08795191

>  <INDEX>
479862

>  <Name>
Toslab 44086

>  <RI>
-2.07807e+09

>  <Rbt.Current_Directory>
/aloy/home/acomajuncosa/PocketVec_v2/GitLab_repo

>  <Rbt.Executable>
rbdock ($Id: //depot/dev/client3/rdock/2021.1/src/exe/rbdock.cxx#4 $)

>  <Rbt.Library>
libRbt.so (2021.1, Build901 2021/07/19)

>  <Rbt.Parameter_File>
examples/2_pocketvec/rDock_results/dock.prm

>  <Rbt.Receptor>
examples/2_pocketvec/rDock_results/st_parameters.prm

>  <SCORE>
-17.0111

>  <SCORE.INTER>
-11.4016

>  <SCORE.INTER.CONST>
1

>  <SCORE.INTER.POLAR>
-1.56037

>  <SCORE.INTER.REPUL>
0

>  <SCORE.INTER.ROT>
4

>  <SCORE.INTER.VDW>
-15.4963

>  <SCORE.INTER.norm>
-0.495721

>  <SCORE.INTRA>
7.9845e-12

>  <SCORE.INTRA.DIHEDRAL>
-1.11022e-13

>  <SCORE.INTRA.DIHEDRAL.0>
4.70511

>  <SCORE.INTRA.POLAR>
0

>  <SCORE.INTRA.POLAR.0>
0

>  <SCORE.INTRA.REPUL>
0

>  <SCORE.INTRA.REPUL.0>
0

>  <SCORE.INTRA.VDW>
8.04001e-12

>  <SCORE.INTRA.VDW.0>
-1.10668

>  <SCORE.INTRA.norm>
3.47152e-13

>  <SCORE.RESTR>
0

>  <SCORE.RESTR.CAVITY>
0

>  <SCORE.RESTR.norm>
0

>  <SCORE.SYSTEM>
-5.60953

>  <SCORE.SYSTEM.CONST>
0

>  <SCORE.SYSTEM.DIHEDRAL>
1.3144

>  <SCORE.SYSTEM.POLAR>
-1.74501

>  <SCORE.SYSTEM.VDW>
-0.333706

>  <SCORE.SYSTEM.norm>
-0.243892

>  <SCORE.heavy>
23

>  <SCORE.norm>
-0.739614

$$$$
Specs AM-900/15051004
  rDOCK(R)          3D
libRbt.so/2021.1/901 2021/07/19
 29 32  0  0  0  0  0  0  0  0999 V2000
   -4.4178    8.8924   10.8045 C   0  0  0  0  0  0
   -3.0849    8.6795   10.6617 N   0  0  0  0  0  0
   -5.1964    8.0832   11.5678 N   0  0  0  0  0  0
   -2.5423    7.6253   11.3091 C   0  0  0  0  0  0
   -4.9744    9.9182   10.1818 N   0  0  0  0  0  0
   -3.2609    6.7625   12.0981 C   0  0  0  0  0  0
   -4.6020    7.0436   12.1929 C   0  0  0  0  0  0
   -1.1193    7.4212   11.1389 N   0  0  0  0  0  0
   -4.9814    5.1502   13.6563 N   0  0  0  0  0  0
   -5.4667    6.2150   12.9891 N   0  0  0  0  0  0
   -5.8781    4.5062   14.3252 C   0  0  0  0  0  0
   -6.5408    2.6577   15.8193 C   0  0  0  0  0  0
   -5.5074    3.2957   15.1237 C   0  0  0  0  0  0
   -6.2484    1.5239   16.5789 C   0  0  0  0  0  0
   -6.3973   10.2530   10.2556 C   0  0  0  0  0  0
   -4.2454   10.8602    9.3316 C   0  0  0  0  0  0
   -0.3715    8.3450   10.2995 C   0  0  0  0  0  0
   -0.4227    6.3209   11.7845 C   0  0  0  0  0  0
   -3.9240    1.6888   15.9388 C   0  0  0  0  0  0
   -4.2091    2.8232   15.1767 C   0  0  0  0  0  0
   -4.9416    1.0407   16.6388 C   0  0  0  0  0  0
   -7.3322    0.8244   17.3311 C   0  0  0  0  0  0
    0.7869    8.9293   11.1386 C   0  0  0  0  0  0
    0.7361    6.9077   12.6216 C   0  0  0  0  0  0
   -4.3809   12.2940    9.8410 C   0  0  0  0  0  0
   -6.6121   11.6654   10.7987 C   0  0  0  0  0  0
   -5.8466   12.6967    9.9770 C   0  0  0  0  0  0
    1.6271    7.8604   11.8311 C   0  0  0  0  0  0
   -6.4510    6.4347   13.0490 H   0  0  0  0  0  0
  1  2  2  0  0  0
  1  3  1  0  0  0
  1  5  1  0  0  0
  2  4  1  0  0  0
  3  7  2  0  0  0
  4  6  2  0  0  0
  4  8  1  0  0  0
  5 15  1  0  0  0
  5 16  1  0  0  0
  6  7  1  0  0  0
  7 10  1  0  0  0
  8 17  1  0  0  0
  8 18  1  0  0  0
  9 10  1  0  0  0
  9 11  2  0  0  0
 10 29  1  0  0  0
 11 13  1  0  0  0
 12 13  2  0  0  0
 12 14  1  0  0  0
 13 20  1  0  0  0
 14 21  2  0  0  0
 14 22  1  0  0  0
 15 26  1  0  0  0
 16 25  1  0  0  0
 17 23  1  0  0  0
 18 24  1  0  0  0
 19 20  2  0  0  0
 19 21  1  0  0  0
 23 28  1  0  0  0
 24 28  1  0  0  0
 25 27  1  0  0  0
 26 27  1  0  0  0
M  END
>  <$CLUSTER>
508

>  <CHROM.0>
-0.45175883,171.81007871,73.95744238

>  <CHROM.1>
-3.88697800,6.86528849,12.50827241,1.35673256,0.13047580,-0.57808985

>  <INDEX>
505362

>  <Name>
Specs AM-900/15051004

>  <RI>
-2.07807e+09

>  <Rbt.Current_Directory>
/aloy/home/acomajuncosa/PocketVec_v2/GitLab_repo

>  <Rbt.Executable>
rbdock ($Id: //depot/dev/client3/rdock/2021.1/src/exe/rbdock.cxx#4 $)

>  <Rbt.Library>
libRbt.so (2021.1, Build901 2021/07/19)

>  <Rbt.Parameter_File>
examples/2_pocketvec/rDock_results/dock.prm

>  <Rbt.Receptor>
examples/2_pocketvec/rDock_results/st_parameters.prm

>  <SCORE>
-11.0017

>  <SCORE.INTER>
-5.39195

>  <SCORE.INTER.CONST>
1

>  <SCORE.INTER.POLAR>
0

>  <SCORE.INTER.REPUL>
0

>  <SCORE.INTER.ROT>
5

>  <SCORE.INTER.VDW>
-15.792

>  <SCORE.INTER.norm>
-0.19257

>  <SCORE.INTRA>
-1.49583e-12

>  <SCORE.INTRA.DIHEDRAL>
-4.26326e-15

>  <SCORE.INTRA.DIHEDRAL.0>
2.13453e-05

>  <SCORE.INTRA.POLAR>
0

>  <SCORE.INTRA.POLAR.0>
0

>  <SCORE.INTRA.REPUL>
0

>  <SCORE.INTRA.REPUL.0>
0

>  <SCORE.INTRA.VDW>
-1.49369e-12

>  <SCORE.INTRA.VDW.0>
1.3002

>  <SCORE.INTRA.norm>
-5.34223e-14

>  <SCORE.RESTR>
0

>  <SCORE.RESTR.CAVITY>
0

>  <SCORE.RESTR.norm>
0

>  <SCORE.SYSTEM>
-5.60974

>  <SCORE.SYSTEM.CONST>
0

>  <SCORE.SYSTEM.DIHEDRAL>
1.30994

>  <SCORE.SYSTEM.POLAR>
-1.74636

>  <SCORE.SYSTEM.VDW>
-0.327077

>  <SCORE.SYSTEM.norm>
-0.200348

>  <SCORE.heavy>
28

>  <SCORE.norm>
-0.392918

$$$$
Life Chemicals F2584-0097
  rDOCK(R)          3D
libRbt.so/2021.1/901 2021/07/19
 27 30  0  0  0  0  0  0  0  0999 V2000
   -4.6555    2.8960   15.2581 S   0  0  0  0  0  0
   -0.8819    6.9193   13.2122 N   0  0  0  0  0  0
    0.1696    6.1816   12.6673 C   0  0  0  0  0  0
   -1.8666    6.0828   13.7250 C   0  0  0  0  0  0
   -5.6443    2.5622   13.9496 N   0  0  0  0  0  0
   -1.5144    4.7550   13.5474 C   0  0  0  0  0  0
   -3.5536    4.1493   14.6271 C   0  0  0  0  0  0
   -5.0986    1.8779   12.7854 C   0  0  0  0  0  0
   -3.0382    6.5073   14.3226 C   0  0  0  0  0  0
   -0.1892    4.6922   12.8536 C   0  0  0  0  0  0
   -2.3592    3.7619   13.9981 C   0  0  0  0  0  0
   -3.8907    5.5100   14.7938 C   0  0  0  0  0  0
   -5.4843    3.4755   16.2997 O   0  0  0  0  0  0
   -3.8731    1.7017   15.5317 O   0  0  0  0  0  0
   -4.8399    2.5578   11.5824 C   0  0  0  0  0  0
    1.1908    6.5969   12.1423 O   0  0  0  0  0  0
   -4.7938    0.5185   12.9113 C   0  0  0  0  0  0
   -4.2729    1.8535   10.5139 C   0  0  0  0  0  0
   -1.0312    8.3607   13.3171 C   0  0  0  0  0  0
   -4.2289   -0.1700   11.8404 C   0  0  0  0  0  0
   -3.9691    0.4964   10.6458 C   0  0  0  0  0  0
   -3.2866    7.9808   14.4618 C   0  0  0  0  0  0
   -5.1742    3.8875   11.5591 O   0  0  0  0  0  0
   -2.5086    8.7746   13.3927 C   0  0  0  0  0  0
   -3.9052   -1.6226   11.9752 C   0  0  0  0  0  0
   -4.8899    4.6083   10.3662 C   0  0  0  0  0  0
   -6.6166    2.8346   13.9673 H   0  0  0  0  0  0
  1  5  1  0  0  0
  1  7  1  0  0  0
  1 13  2  0  0  0
  1 14  2  0  0  0
  2  3  1  0  0  0
  2  4  1  0  0  0
  2 19  1  0  0  0
  3 10  1  0  0  0
  3 16  2  0  0  0
  4  6  1  0  0  0
  4  9  2  0  0  0
  5  8  1  0  0  0
  5 27  1  0  0  0
  6 10  1  0  0  0
  6 11  2  0  0  0
  7 11  1  0  0  0
  7 12  2  0  0  0
  8 15  2  0  0  0
  8 17  1  0  0  0
  9 12  1  0  0  0
  9 22  1  0  0  0
 15 18  1  0  0  0
 15 23  1  0  0  0
 17 20  2  0  0  0
 18 21  2  0  0  0
 19 24  1  0  0  0
 20 21  1  0  0  0
 20 25  1  0  0  0
 22 24  1  0  0  0
 23 26  1  0  0  0
M  END
>  <$CLUSTER>
470

>  <CHROM.0>
0.09660895,171.56509181,73.46143475

>  <CHROM.1>
-3.30366197,3.98400442,13.28172541,2.33463044,-0.79547606,-2.43165559

>  <INDEX>
309165

>  <Name>
Life Chemicals F2584-0097

>  <RI>
-2.07807e+09

>  <Rbt.Current_Directory>
/aloy/home/acomajuncosa/PocketVec_v2/GitLab_repo

>  <Rbt.Executable>
rbdock ($Id: //depot/dev/client3/rdock/2021.1/src/exe/rbdock.cxx#4 $)

>  <Rbt.Library>
libRbt.so (2021.1, Build901 2021/07/19)

>  <Rbt.Parameter_File>
examples/2_pocketvec/rDock_results/dock.prm

>  <Rbt.Receptor>
examples/2_pocketvec/rDock_results/st_parameters.prm

>  <SCORE>
-11.0537

>  <SCORE.INTER>
-5.44632

>  <SCORE.INTER.CONST>
1

>  <SCORE.INTER.POLAR>
-0.0998034

>  <SCORE.INTER.REPUL>
0.0957922

>  <SCORE.INTER.ROT>
4

>  <SCORE.INTER.VDW>
-14.9859

>  <SCORE.INTER.norm>
-0.209474

>  <SCORE.INTRA>
-1.08047e-12

>  <SCORE.INTRA.DIHEDRAL>
7.81597e-14

>  <SCORE.INTRA.DIHEDRAL.0>
14.1465

>  <SCORE.INTRA.POLAR>
0

>  <SCORE.INTRA.POLAR.0>
0

>  <SCORE.INTRA.REPUL>
0

>  <SCORE.INTRA.REPUL.0>
0

>  <SCORE.INTRA.VDW>
-1.11955e-12

>  <SCORE.INTRA.VDW.0>
-1.18511

>  <SCORE.INTRA.norm>
-4.15565e-14

>  <SCORE.RESTR>
0

>  <SCORE.RESTR.CAVITY>
0

>  <SCORE.RESTR.norm>
0

>  <SCORE.SYSTEM>
-5.60739

>  <SCORE.SYSTEM.CONST>
0

>  <SCORE.SYSTEM.DIHEDRAL>
1.26683

>  <SCORE.SYSTEM.POLAR>
-1.74228

>  <SCORE.SYSTEM.VDW>
-0.317055

>  <SCORE.SYSTEM.norm>
-0.215669

>  <SCORE.heavy>
26

>  <SCORE.norm>
-0.425143

$$$$
Asinex ASN 06235439
  rDOCK(R)          3D
libRbt.so/2021.1/901 2021/07/19
 30 32  0  0  0  0  0  0  0  0999 V2000
    1.6771    4.3016   10.5540 C   0  0  0  0  0  0
    0.3355    4.0700   10.5499 N   0  0  0  0  0  0
   -4.3578    2.9709   12.9321 C   0  0  0  0  0  0
    2.0539    5.6104   10.7707 N   0  0  0  0  0  0
   -3.0203    2.6796   12.7823 N   0  0  0  0  0  0
    3.2885    6.2505   10.8468 C   0  0  0  0  0  0
   -4.9364    2.3419   14.1704 C   0  0  0  0  0  0
    2.5286    3.4306   10.3626 O   0  0  0  0  0  0
   -0.2267    2.7611   10.1944 C   0  0  0  0  0  0
   -0.7269    5.0353   10.8586 C   0  0  0  0  0  0
   -5.0311    3.6706   12.1802 O   0  0  0  0  0  0
   -2.2219    3.1827   11.6623 C   0  0  0  0  0  0
   -1.1072    2.1975   11.3084 C   0  0  0  0  0  0
   -1.6252    4.5509   11.9952 C   0  0  0  0  0  0
    5.7123    6.2544   10.7661 C   0  0  0  0  0  0
    4.5343    8.3147   11.1777 C   0  0  0  0  0  0
    3.3204    7.6305   11.0936 C   0  0  0  0  0  0
    4.4968    5.5668   10.6842 C   0  0  0  0  0  0
   -6.0967    2.9806   14.7037 C   0  0  0  0  0  0
   -4.4738    1.1880   14.7440 C   0  0  0  0  0  0
    5.7321    7.6246   11.0140 C   0  0  0  0  0  0
   -6.2165    1.2851   16.4214 C   0  0  0  0  0  0
   -5.0990    0.6554   15.8755 C   0  0  0  0  0  0
   -6.7157    2.4459   15.8341 C   0  0  0  0  0  0
   -6.9239    0.8537   17.5212 O   0  0  0  0  0  0
    6.9996    5.5119   10.5897 C   0  0  0  0  0  0
    4.5437    9.7838   11.4436 C   0  0  0  0  0  0
   -6.4623   -0.3307   18.1610 C   0  0  0  0  0  0
    1.2713    6.2351   10.9012 H   0  0  0  0  0  0
   -2.5716    2.0952   13.4733 H   0  0  0  0  0  0
  1  2  1  0  0  0
  1  4  1  0  0  0
  1  8  2  0  0  0
  2  9  1  0  0  0
  2 10  1  0  0  0
  3  5  1  0  0  0
  3  7  1  0  0  0
  3 11  2  0  0  0
  4  6  1  0  0  0
  4 29  1  0  0  0
  5 12  1  0  0  0
  5 30  1  0  0  0
  6 17  2  0  0  0
  6 18  1  0  0  0
  7 19  1  0  0  0
  7 20  2  0  0  0
  9 13  1  0  0  0
 10 14  1  0  0  0
 12 13  1  0  0  0
 12 14  1  0  0  0
 15 18  2  0  0  0
 15 21  1  0  0  0
 15 26  1  0  0  0
 16 17  1  0  0  0
 16 21  2  0  0  0
 16 27  1  0  0  0
 19 24  2  0  0  0
 20 23  1  0  0  0
 22 23  2  0  0  0
 22 24  1  0  0  0
 22 25  1  0  0  0
 25 28  1  0  0  0
M  END
>  <$CLUSTER>
250

>  <CHROM.0>
174.29009681,70.11854295,74.56835171

>  <CHROM.1>
-0.74402477,4.00012682,12.55145558,0.09486733,-0.59835317,-2.16096614

>  <INDEX>
156626

>  <Name>
Asinex ASN 06235439

>  <RI>
-2.07807e+09

>  <Rbt.Current_Directory>
/aloy/home/acomajuncosa/PocketVec_v2/GitLab_repo

>  <Rbt.Executable>
rbdock ($Id: //depot/dev/client3/rdock/2021.1/src/exe/rbdock.cxx#4 $)

>  <Rbt.Library>
libRbt.so (2021.1, Build901 2021/07/19)

>  <Rbt.Parameter_File>
examples/2_pocketvec/rDock_results/dock.prm

>  <Rbt.Receptor>
examples/2_pocketvec/rDock_results/st_parameters.prm

>  <SCORE>
-13.7132

>  <SCORE.INTER>
-11.3098

>  <SCORE.INTER.CONST>
1

>  <SCORE.INTER.POLAR>
-1.29296

>  <SCORE.INTER.REPUL>
0

>  <SCORE.INTER.ROT>
4

>  <SCORE.INTER.VDW>
-16.3137

>  <SCORE.INTER.norm>
-0.403922

>  <SCORE.INTRA>
2.38187e-12

>  <SCORE.INTRA.DIHEDRAL>
-7.60281e-13

>  <SCORE.INTRA.DIHEDRAL.0>
3.61747

>  <SCORE.INTRA.POLAR>
0

>  <SCORE.INTRA.POLAR.0>
0

>  <SCORE.INTRA.REPUL>
0

>  <SCORE.INTRA.REPUL.0>
0

>  <SCORE.INTRA.VDW>
2.76201e-12

>  <SCORE.INTRA.VDW.0>
1.46568

>  <SCORE.INTRA.norm>
8.50669e-14

>  <SCORE.RESTR>
0

>  <SCORE.RESTR.CAVITY>
0

>  <SCORE.RESTR.norm>
0

>  <SCORE.SYSTEM>
-2.40338

>  <SCORE.SYSTEM.CONST>
0

>  <SCORE.SYSTEM.DIHEDRAL>
1.60923

>  <SCORE.SYSTEM.POLAR>
-0.756375

>  <SCORE.SYSTEM.VDW>
-0.636326

>  <SCORE.SYSTEM.norm>
-0.0858351

>  <SCORE.heavy>
28

>  <SCORE.norm>
-0.489757

$$$$
Specs AA-504/36954121
  rDOCK(R)          3D
libRbt.so/2021.1/901 2021/07/19
 29 32  0  0  0  0  0  0  0  0999 V2000
   -3.0695    4.1209    9.6478 C   0  0  0  0  0  0
   -2.4621    3.4761   11.1075 S   0  0  0  0  0  0
   -2.3171    5.1334    9.1016 N   0  0  0  0  0  0
   -4.1831    3.5752    9.2157 N   0  0  0  0  0  0
   -4.6220    2.5749   10.0657 N   0  0  0  0  0  0
   -3.8153    2.4210   11.0944 C   0  0  0  0  0  0
   -2.6898    5.7496    7.9183 C   0  0  0  0  0  0
   -1.7148    6.8295    7.5239 C   0  0  0  0  0  0
   -5.7456    2.0278   15.3825 C   0  0  0  0  0  0
   -3.6815    5.5043    7.2382 O   0  0  0  0  0  0
   -4.7267    2.0766   13.2257 O   0  0  0  0  0  0
   -5.0380    1.3389   14.3615 C   0  0  0  0  0  0
   -4.0206    1.4209   12.1831 C   0  0  0  0  0  0
   -0.3841    6.8399    7.8601 C   0  0  0  0  0  0
   -2.2338    7.8556    6.6786 C   0  0  0  0  0  0
   -6.0933    1.3325   16.5688 C   0  0  0  0  0  0
   -0.0497    8.8877    6.6149 C   0  0  0  0  0  0
   -1.3920    8.8807    6.2424 C   0  0  0  0  0  0
    0.4539    7.8671    7.4206 C   0  0  0  0  0  0
    0.6750    9.9431    6.1107 O   0  0  0  0  0  0
   -5.0449   -0.6783   15.7034 C   0  0  0  0  0  0
   -4.6955   -0.0074   14.5332 C   0  0  0  0  0  0
   -6.1239    3.3850   15.2770 C   0  0  0  0  0  0
   -5.7370   -0.0157   16.7127 C   0  0  0  0  0  0
   -6.7928    1.9960   17.5909 C   0  0  0  0  0  0
    2.0555   10.0005    6.4538 C   0  0  0  0  0  0
   -6.8180    4.0302   16.3023 C   0  0  0  0  0  0
   -7.1528    3.3363   17.4585 C   0  0  0  0  0  0
   -1.4758    5.4338    9.5717 H   0  0  0  0  0  0
  1  2  1  0  0  0
  1  3  1  0  0  0
  1  4  2  0  0  0
  2  6  1  0  0  0
  3  7  1  0  0  0
  3 29  1  0  0  0
  4  5  1  0  0  0
  5  6  2  0  0  0
  6 13  1  0  0  0
  7  8  1  0  0  0
  7 10  2  0  0  0
  8 14  1  0  0  0
  8 15  2  0  0  0
  9 12  2  0  0  0
  9 16  1  0  0  0
  9 23  1  0  0  0
 11 12  1  0  0  0
 11 13  1  0  0  0
 12 22  1  0  0  0
 14 19  2  0  0  0
 15 18  1  0  0  0
 16 24  2  0  0  0
 16 25  1  0  0  0
 17 18  2  0  0  0
 17 19  1  0  0  0
 17 20  1  0  0  0
 20 26  1  0  0  0
 21 22  2  0  0  0
 21 24  1  0  0  0
 23 27  2  0  0  0
 25 28  2  0  0  0
 27 28  1  0  0  0
M  END
>  <$CLUSTER>
744

>  <CHROM.0>
178.74886207,171.80348536,74.91661780

>  <CHROM.1>
-3.37767685,4.30372539,11.17029062,-0.11234957,-1.11873818,-2.62562681

>  <INDEX>
488231

>  <Name>
Specs AA-504/36954121

>  <RI>
-2.07807e+09

>  <Rbt.Current_Directory>
/aloy/home/acomajuncosa/PocketVec_v2/GitLab_repo

>  <Rbt.Executable>
rbdock ($Id: //depot/dev/client3/rdock/2021.1/src/exe/rbdock.cxx#4 $)

>  <Rbt.Library>
libRbt.so (2021.1, Build901 2021/07/19)

>  <Rbt.Parameter_File>
examples/2_pocketvec/rDock_results/dock.prm

>  <Rbt.Receptor>
examples/2_pocketvec/rDock_results/st_parameters.prm

>  <SCORE>
-13.1639

>  <SCORE.INTER>
-7.72354

>  <SCORE.INTER.CONST>
1

>  <SCORE.INTER.POLAR>
-1.27573

>  <SCORE.INTER.REPUL>
0

>  <SCORE.INTER.ROT>
6

>  <SCORE.INTER.VDW>
-14.786

>  <SCORE.INTER.norm>
-0.275841

>  <SCORE.INTRA>
-1.64713e-12

>  <SCORE.INTRA.DIHEDRAL>
7.62945e-13

>  <SCORE.INTRA.DIHEDRAL.0>
3.75702

>  <SCORE.INTRA.POLAR>
0

>  <SCORE.INTRA.POLAR.0>
0

>  <SCORE.INTRA.REPUL>
0

>  <SCORE.INTRA.REPUL.0>
0

>  <SCORE.INTRA.VDW>
-2.0286e-12

>  <SCORE.INTRA.VDW.0>
2.32785

>  <SCORE.INTRA.norm>
-5.8826e-14

>  <SCORE.RESTR>
0

>  <SCORE.RESTR.CAVITY>
0

>  <SCORE.RESTR.norm>
0

>  <SCORE.SYSTEM>
-5.44035

>  <SCORE.SYSTEM.CONST>
0

>  <SCORE.SYSTEM.DIHEDRAL>
1.437

>  <SCORE.SYSTEM.POLAR>
-1.7542

>  <SCORE.SYSTEM.VDW>
-0.194582

>  <SCORE.SYSTEM.norm>
-0.194298

>  <SCORE.heavy>
28

>  <SCORE.norm>
-0.470139

$$$$
Specs AP-866/42442546
  rDOCK(R)          3D
libRbt.so/2021.1/901 2021/07/19
 26 27  0  0  0  0  0  0  0  0999 V2000
   -2.3383    4.5265   15.0011 S   0  0  0  0  0  0
   -6.1388    0.9922   16.5839 S   0  0  0  0  0  0
   -4.0601    4.0872   15.0582 C   0  0  0  0  0  0
   -5.0687    5.2171    9.6043 C   0  0  0  0  0  0
   -4.3924    2.8905   15.6925 C   0  0  0  0  0  0
   -1.9302    4.2809   13.3977 N   0  0  0  0  0  0
   -5.7341    2.5209   15.7974 C   0  0  0  0  0  0
   -3.9965    5.6400   10.5636 C   0  0  0  0  0  0
   -1.5802    3.5606   15.7770 O   0  0  0  0  0  0
   -2.1994    5.9415   15.2931 O   0  0  0  0  0  0
   -7.5470    0.7277   16.3583 O   0  0  0  0  0  0
   -5.1349    0.0239   16.1877 O   0  0  0  0  0  0
   -5.0630    4.9014   14.5298 C   0  0  0  0  0  0
   -2.4689    5.1798   12.3801 C   0  0  0  0  0  0
   -3.4695    4.7512   11.5016 C   0  0  0  0  0  0
   -6.7430    3.3242   15.2670 C   0  0  0  0  0  0
   -4.6559    5.3742    8.3171 F   0  0  0  0  0  0
   -6.1817    5.9856    9.7549 F   0  0  0  0  0  0
   -5.4750    3.9223    9.7249 F   0  0  0  0  0  0
   -6.4018    4.5191   14.6338 C   0  0  0  0  0  0
   -5.9280    1.3415   18.3098 C   0  0  0  0  0  0
   -3.5290    6.9520   10.5026 C   0  0  0  0  0  0
   -2.5316    7.3777   11.3792 C   0  0  0  0  0  0
   -1.9999    6.4937   12.3190 C   0  0  0  0  0  0
   -4.7729    6.2336   13.8280 C   0  0  0  0  0  0
   -1.3187    3.5206   13.1358 H   0  0  0  0  0  0
  1  3  1  0  0  0
  1  6  1  0  0  0
  1  9  2  0  0  0
  1 10  2  0  0  0
  2  7  1  0  0  0
  2 11  2  0  0  0
  2 12  2  0  0  0
  2 21  1  0  0  0
  3  5  2  0  0  0
  3 13  1  0  0  0
  4  8  1  0  0  0
  4 17  1  0  0  0
  4 18  1  0  0  0
  4 19  1  0  0  0
  5  7  1  0  0  0
  6 14  1  0  0  0
  6 26  1  0  0  0
  7 16  2  0  0  0
  8 15  2  0  0  0
  8 22  1  0  0  0
 13 20  2  0  0  0
 13 25  1  0  0  0
 14 15  1  0  0  0
 14 24  2  0  0  0
 16 20  1  0  0  0
 22 23  2  0  0  0
 23 24  1  0  0  0
M  END
>  <$CLUSTER>
826

>  <CHROM.0>
175.44810311,172.43469196,73.38564339

>  <CHROM.1>
-4.39690861,4.09834911,13.64342357,-1.81666680,-0.55019037,-1.10370121

>  <INDEX>
533907

>  <Name>
Specs AP-866/42442546

>  <RI>
-2.07807e+09

>  <Rbt.Current_Directory>
/aloy/home/acomajuncosa/PocketVec_v2/GitLab_repo

>  <Rbt.Executable>
rbdock ($Id: //depot/dev/client3/rdock/2021.1/src/exe/rbdock.cxx#4 $)

>  <Rbt.Library>
libRbt.so (2021.1, Build901 2021/07/19)

>  <Rbt.Parameter_File>
examples/2_pocketvec/rDock_results/dock.prm

>  <Rbt.Receptor>
examples/2_pocketvec/rDock_results/st_parameters.prm

>  <SCORE>
-10.2738

>  <SCORE.INTER>
-4.82003

>  <SCORE.INTER.CONST>
1

>  <SCORE.INTER.POLAR>
0

>  <SCORE.INTER.REPUL>
0.172155

>  <SCORE.INTER.ROT>
5

>  <SCORE.INTER.VDW>
-16.0808

>  <SCORE.INTER.norm>
-0.192801

>  <SCORE.INTRA>
-2.99538e-13

>  <SCORE.INTRA.DIHEDRAL>
-3.48166e-13

>  <SCORE.INTRA.DIHEDRAL.0>
15.9248

>  <SCORE.INTRA.POLAR>
0

>  <SCORE.INTRA.POLAR.0>
0

>  <SCORE.INTRA.REPUL>
0

>  <SCORE.INTRA.REPUL.0>
0

>  <SCORE.INTRA.VDW>
-1.25455e-13

>  <SCORE.INTRA.VDW.0>
-1.67479

>  <SCORE.INTRA.norm>
-1.19815e-14

>  <SCORE.RESTR>
0

>  <SCORE.RESTR.CAVITY>
0

>  <SCORE.RESTR.norm>
0

>  <SCORE.SYSTEM>
-5.45375

>  <SCORE.SYSTEM.CONST>
0

>  <SCORE.SYSTEM.DIHEDRAL>
1.23017

>  <SCORE.SYSTEM.POLAR>
-1.74165

>  <SCORE.SYSTEM.VDW>
-0.147209

>  <SCORE.SYSTEM.norm>
-0.21815

>  <SCORE.heavy>
25

>  <SCORE.norm>
-0.410951

$$$$
EMC Microcollections 009B3204
  rDOCK(R)          3D
libRbt.so/2021.1/901 2021/07/19
 34 36  0  0  0  0  0  0  0  0999 V2000
   -1.6706    8.6358   14.7154 C   0  0  0  0  0  0
   -2.0371    9.5924   13.8161 N   0  0  0  0  0  0
   -1.5250   10.6850   14.3326 C   0  0  0  0  0  0
   -2.0231    7.1762   14.5726 C   0  0  0  0  0  0
   -0.8501   10.5174   15.5022 O   0  0  0  0  0  0
   -0.9510    9.1815   15.7424 C   0  0  0  0  0  0
   -4.9448    2.1393   11.2966 C   0  0  0  0  0  0
   -2.7616    6.9485   13.4177 N   0  0  0  0  0  0
   -4.3435    3.3594   11.8715 C   0  0  0  0  0  0
   -4.2627    0.8311   11.3644 C   0  0  0  0  0  0
   -1.6665    6.3588   15.4147 O   0  0  0  0  0  0
   -6.0385    2.2141   10.7484 O   0  0  0  0  0  0
   -1.5825   12.0817   13.8012 C   0  0  0  0  0  0
   -3.2736    5.7031   12.9403 C   0  0  0  0  0  0
   -5.0348   -0.3206   11.5433 C   0  0  0  0  0  0
   -3.6382    3.3160   13.0768 C   0  0  0  0  0  0
   -2.8781    0.7306   11.2059 C   0  0  0  0  0  0
   -4.5326    4.5772   11.2102 C   0  0  0  0  0  0
   -3.0310   -1.6708   11.4473 C   0  0  0  0  0  0
   -2.9048   12.3889   13.1798 N   0  3  0  0  0  0
   -3.9912    5.7471   11.7451 C   0  0  0  0  0  0
   -3.0998    4.4904   13.6062 C   0  0  0  0  0  0
   -2.4303   -2.9003   11.4981 N   0  0  0  0  0  0
   -2.2644   -0.5222   11.2531 C   0  0  0  0  0  0
   -4.4150   -1.5700   11.5896 C   0  0  0  0  0  0
   -0.5040   12.3193   12.7512 C   0  0  0  0  0  0
   -0.3687   13.7736   12.2360 C   0  0  0  0  0  0
    0.8063   13.9523   11.2871 C   0  0  0  0  0  0
   -2.9600    7.7595   12.8489 H   0  0  0  0  0  0
   -3.0522   11.7832   12.3855 H   0  0  0  0  0  0
   -2.9181   13.3515   12.8751 H   0  0  0  0  0  0
   -3.6385   12.2402   13.8583 H   0  0  0  0  0  0
   -2.9896   -3.7295   11.6383 H   0  0  0  0  0  0
   -1.4282   -2.9772   11.3954 H   0  0  0  0  0  0
  1  2  1  0  0  0
  1  4  1  0  0  0
  1  6  2  0  0  0
  2  3  2  0  0  0
  3  5  1  0  0  0
  3 13  1  0  0  0
  4  8  1  0  0  0
  4 11  2  0  0  0
  5  6  1  0  0  0
  7  9  1  0  0  0
  7 10  1  0  0  0
  7 12  2  0  0  0
  8 14  1  0  0  0
  8 29  1  0  0  0
  9 16  1  0  0  0
  9 18  2  0  0  0
 10 15  1  0  0  0
 10 17  2  0  0  0
 13 20  1  0  0  0
 13 26  1  0  0  0
 14 21  2  0  0  0
 14 22  1  0  0  0
 15 25  2  0  0  0
 16 22  2  0  0  0
 17 24  1  0  0  0
 18 21  1  0  0  0
 19 23  1  0  0  0
 19 24  2  0  0  0
 19 25  1  0  0  0
 20 30  1  0  0  0
 20 31  1  0  0  0
 20 32  1  0  0  0
 23 33  1  0  0  0
 23 34  1  0  0  0
 26 27  1  0  0  0
 27 28  1  0  0  0
M  END
>  <$CLUSTER>
341

>  <CHROM.0>
0.24468076,171.85101083,73.67540588

>  <CHROM.1>
-2.68522040,5.84604050,12.77034238,-1.14773101,0.98835512,2.95112053

>  <INDEX>
218044

>  <Name>
EMC Microcollections 009B3204

>  <RI>
-2.07807e+09

>  <Rbt.Current_Directory>
/aloy/home/acomajuncosa/PocketVec_v2/GitLab_repo

>  <Rbt.Executable>
rbdock ($Id: //depot/dev/client3/rdock/2021.1/src/exe/rbdock.cxx#4 $)

>  <Rbt.Library>
libRbt.so (2021.1, Build901 2021/07/19)

>  <Rbt.Parameter_File>
examples/2_pocketvec/rDock_results/dock.prm

>  <Rbt.Receptor>
examples/2_pocketvec/rDock_results/st_parameters.prm

>  <SCORE>
-14.6805

>  <SCORE.INTER>
-9.07129

>  <SCORE.INTER.CONST>
1

>  <SCORE.INTER.POLAR>
-0.795871

>  <SCORE.INTER.REPUL>
0

>  <SCORE.INTER.ROT>
7

>  <SCORE.INTER.VDW>
-18.7653

>  <SCORE.INTER.norm>
-0.323975

>  <SCORE.INTRA>
2.99244e-13

>  <SCORE.INTRA.DIHEDRAL>
-2.11386e-13

>  <SCORE.INTRA.DIHEDRAL.0>
10.7085

>  <SCORE.INTRA.POLAR>
-2.96707e-14

>  <SCORE.INTRA.POLAR.0>
-0.14771

>  <SCORE.INTRA.REPUL>
0

>  <SCORE.INTRA.REPUL.0>
0

>  <SCORE.INTRA.VDW>
5.05818e-13

>  <SCORE.INTRA.VDW.0>
-2.09363

>  <SCORE.INTRA.norm>
1.06873e-14

>  <SCORE.RESTR>
0

>  <SCORE.RESTR.CAVITY>
0

>  <SCORE.RESTR.norm>
0

>  <SCORE.SYSTEM>
-5.60924

>  <SCORE.SYSTEM.CONST>
0

>  <SCORE.SYSTEM.DIHEDRAL>
1.27041

>  <SCORE.SYSTEM.POLAR>
-1.74404

>  <SCORE.SYSTEM.VDW>
-0.314693

>  <SCORE.SYSTEM.norm>
-0.20033

>  <SCORE.heavy>
28

>  <SCORE.norm>
-0.524305

$$$$
Chembridge 9014479
  rDOCK(R)          3D
libRbt.so/2021.1/901 2021/07/19
 24 26  0  0  0  0  0  0  0  0999 V2000
   -3.5386    3.0567   15.6903 N   0  0  0  0  0  0
   -4.7480    2.5135   16.0199 C   0  0  0  0  0  0
   -4.6672    4.6922   14.2345 C   0  0  0  0  0  0
   -3.3273    4.1571   14.7486 C   0  0  0  0  0  0
   -4.5354    1.5386   16.8753 N   0  0  0  0  0  0
   -5.8426    4.1259   14.5976 C   0  0  0  0  0  0
   -5.8623    3.0377   15.4692 N   0  0  0  0  0  0
   -2.5541    2.4460   16.3635 N   0  0  0  0  0  0
   -3.1694    1.5099   17.0782 N   0  0  0  0  0  0
   -2.4024    3.7136   13.6277 C   0  0  0  0  0  0
   -4.6316    5.8322   13.3010 C   0  0  0  0  0  0
   -1.1610    4.3468   13.4570 C   0  0  0  0  0  0
   -5.2199    5.8898   12.2313 O   0  0  0  0  0  0
   -3.8370    6.8115   13.7936 O   0  0  0  0  0  0
   -0.2998    3.9566   12.4295 C   0  0  0  0  0  0
   -7.2020    4.6045   14.1584 C   0  0  0  0  0  0
   -2.7588    2.6821   12.7431 C   0  0  0  0  0  0
    0.8837    4.6642   12.3814 O   0  0  0  0  0  0
   -1.8961    2.2947   11.7172 C   0  0  0  0  0  0
   -0.6668    2.9323   11.5606 C   0  0  0  0  0  0
    1.8060    4.3132   11.3517 C   0  0  0  0  0  0
   -3.6985    7.9932   12.9930 C   0  0  0  0  0  0
    3.0233    5.2111   11.4877 C   0  0  0  0  0  0
   -6.7535    2.6215   15.6989 H   0  0  0  0  0  0
  1  2  1  0  0  0
  1  4  1  0  0  0
  1  8  1  0  0  0
  2  5  2  0  0  0
  2  7  1  0  0  0
  3  4  1  0  0  0
  3  6  2  0  0  0
  3 11  1  0  0  0
  4 10  1  0  0  0
  5  9  1  0  0  0
  6  7  1  0  0  0
  6 16  1  0  0  0
  7 24  1  0  0  0
  8  9  2  0  0  0
 10 12  2  0  0  0
 10 17  1  0  0  0
 11 13  2  0  0  0
 11 14  1  0  0  0
 12 15  1  0  0  0
 14 22  1  0  0  0
 15 18  1  0  0  0
 15 20  2  0  0  0
 17 19  2  0  0  0
 18 21  1  0  0  0
 19 20  1  0  0  0
 21 23  1  0  0  0
M  END
>  <$CLUSTER>
742

>  <CHROM.0>
177.83058337,173.18570606,73.98653661

>  <CHROM.1>
-2.87032354,4.06879515,13.82446612,-2.73499261,0.34033738,-0.65078840

>  <INDEX>
110513

>  <Name>
Chembridge 9014479

>  <RI>
-2.07807e+09

>  <Rbt.Current_Directory>
/aloy/home/acomajuncosa/PocketVec_v2/GitLab_repo

>  <Rbt.Executable>
rbdock ($Id: //depot/dev/client3/rdock/2021.1/src/exe/rbdock.cxx#4 $)

>  <Rbt.Library>
libRbt.so (2021.1, Build901 2021/07/19)

>  <Rbt.Parameter_File>
examples/2_pocketvec/rDock_results/dock.prm

>  <Rbt.Receptor>
examples/2_pocketvec/rDock_results/st_parameters.prm

>  <SCORE>
-8.99958

>  <SCORE.INTER>
-3.54655

>  <SCORE.INTER.CONST>
1

>  <SCORE.INTER.POLAR>
-1.69458

>  <SCORE.INTER.REPUL>
0.336579

>  <SCORE.INTER.ROT>
5

>  <SCORE.INTER.VDW>
-9.86787

>  <SCORE.INTER.norm>
-0.154198

>  <SCORE.INTRA>
3.12195e-13

>  <SCORE.INTRA.DIHEDRAL>
-5.6577e-13

>  <SCORE.INTRA.DIHEDRAL.0>
7.22902

>  <SCORE.INTRA.POLAR>
0

>  <SCORE.INTRA.POLAR.0>
0

>  <SCORE.INTRA.REPUL>
0

>  <SCORE.INTRA.REPUL.0>
0

>  <SCORE.INTRA.VDW>
5.9508e-13

>  <SCORE.INTRA.VDW.0>
0.159168

>  <SCORE.INTRA.norm>
1.35737e-14

>  <SCORE.RESTR>
0

>  <SCORE.RESTR.CAVITY>
0

>  <SCORE.RESTR.norm>
0

>  <SCORE.SYSTEM>
-5.45304

>  <SCORE.SYSTEM.CONST>
0

>  <SCORE.SYSTEM.DIHEDRAL>
1.22525

>  <SCORE.SYSTEM.POLAR>
-1.7466

>  <SCORE.SYSTEM.VDW>
-0.127214

>  <SCORE.SYSTEM.norm>
-0.237089

>  <SCORE.heavy>
23

>  <SCORE.norm>
-0.391286

$$$$
Chem T&I NSB 0071574
  rDOCK(R)          3D
libRbt.so/2021.1/901 2021/07/19
 32 34  0  0  0  0  0  0  0  0999 V2000
   -4.5850    0.2353   15.6294 S   0  0  0  0  0  0
   -6.2011    0.5510   15.9898 N   0  0  0  0  0  0
   -2.2224    6.9160   11.2406 C   0  0  0  0  0  0
   -2.8132    5.5468   11.4736 C   0  0  0  0  0  0
   -6.4516    1.5421   16.9597 C   0  0  0  0  0  0
   -6.8322    2.7218   16.4442 N   0  0  0  0  0  0
   -7.0665    3.6894   17.3477 C   0  0  0  0  0  0
   -6.9402    3.5730   18.6859 N   0  0  0  0  0  0
   -2.7720    5.2053   12.8200 N   0  0  0  0  0  0
   -4.0843    1.7229   14.7630 C   0  0  0  0  0  0
   -6.2810    1.2935   18.3046 C   0  0  0  0  0  0
   -3.8281    0.1269   16.8668 O   0  0  0  0  0  0
   -4.5679   -0.8704   14.6816 O   0  0  0  0  0  0
   -1.3697    7.1170   10.1235 C   0  0  0  0  0  0
   -2.5837    7.9778   12.0537 C   0  0  0  0  0  0
   -6.5449    2.3605   19.1359 C   0  0  0  0  0  0
   -3.2525    4.8843   10.5397 O   0  0  0  0  0  0
   -4.2425    1.7951   13.3869 C   0  0  0  0  0  0
   -3.4962    2.7526   15.4890 C   0  0  0  0  0  0
   -0.8707    8.4041    9.8928 C   0  0  0  0  0  0
   -3.2377    3.9944   13.4305 C   0  0  0  0  0  0
   -2.0791    9.2535   11.8087 C   0  0  0  0  0  0
   -3.8192    2.9452   12.7175 C   0  0  0  0  0  0
   -3.0754    3.8995   14.8131 C   0  0  0  0  0  0
   -1.2240    9.4652   10.7316 C   0  0  0  0  0  0
   -2.5154   10.5400   12.8343 Cl  0  0  0  0  0  0
   -1.0565    6.0183    9.3641 O   0  0  0  0  0  0
   -7.5193    5.0481   16.8304 C   0  0  0  0  0  0
   -6.3935    2.1997   20.6196 C   0  0  0  0  0  0
   -0.2169    6.2183    8.2339 C   0  0  0  0  0  0
   -6.9526    0.0547   15.5332 H   0  0  0  0  0  0
   -2.3662    5.8905   13.4417 H   0  0  0  0  0  0
  1  2  1  0  0  0
  1 10  1  0  0  0
  1 12  2  0  0  0
  1 13  2  0  0  0
  2  5  1  0  0  0
  2 31  1  0  0  0
  3  4  1  0  0  0
  3 14  2  0  0  0
  3 15  1  0  0  0
  4  9  1  0  0  0
  4 17  2  0  0  0
  5  6  1  0  0  0
  5 11  2  0  0  0
  6  7  2  0  0  0
  7  8  1  0  0  0
  7 28  1  0  0  0
  8 16  2  0  0  0
  9 21  1  0  0  0
  9 32  1  0  0  0
 10 18  2  0  0  0
 10 19  1  0  0  0
 11 16  1  0  0  0
 14 20  1  0  0  0
 14 27  1  0  0  0
 15 22  2  0  0  0
 16 29  1  0  0  0
 18 23  1  0  0  0
 19 24  2  0  0  0
 20 25  2  0  0  0
 21 23  2  0  0  0
 21 24  1  0  0  0
 22 25  1  0  0  0
 22 26  1  0  0  0
 27 30  1  0  0  0
M  END
>  <$CLUSTER>
636

>  <CHROM.0>
2.60362232,173.00663174,73.91670631

>  <CHROM.1>
-3.90210283,4.31594585,14.10986909,-2.48001261,1.02304712,0.05451696

>  <INDEX>
574624

>  <Name>
Chem T&I NSB 0071574

>  <RI>
-2.07807e+09

>  <Rbt.Current_Directory>
/aloy/home/acomajuncosa/PocketVec_v2/GitLab_repo

>  <Rbt.Executable>
rbdock ($Id: //depot/dev/client3/rdock/2021.1/src/exe/rbdock.cxx#4 $)

>  <Rbt.Library>
libRbt.so (2021.1, Build901 2021/07/19)

>  <Rbt.Parameter_File>
examples/2_pocketvec/rDock_results/dock.prm

>  <Rbt.Receptor>
examples/2_pocketvec/rDock_results/st_parameters.prm

>  <SCORE>
11.2736

>  <SCORE.INTER>
16.8795

>  <SCORE.INTER.CONST>
1

>  <SCORE.INTER.POLAR>
-1.64961

>  <SCORE.INTER.REPUL>
0.00122749

>  <SCORE.INTER.ROT>
6

>  <SCORE.INTER.VDW>
11.082

>  <SCORE.INTER.norm>
0.562649

>  <SCORE.INTRA>
-7.32792e-12

>  <SCORE.INTRA.DIHEDRAL>
-7.63833e-13

>  <SCORE.INTRA.DIHEDRAL.0>
20.9123

>  <SCORE.INTRA.POLAR>
0

>  <SCORE.INTRA.POLAR.0>
0

>  <SCORE.INTRA.REPUL>
0

>  <SCORE.INTRA.REPUL.0>
0

>  <SCORE.INTRA.VDW>
-6.946e-12

>  <SCORE.INTRA.VDW.0>
-1.00244

>  <SCORE.INTRA.norm>
-2.44264e-13

>  <SCORE.RESTR>
0

>  <SCORE.RESTR.CAVITY>
0

>  <SCORE.RESTR.norm>
0

>  <SCORE.SYSTEM>
-5.60583

>  <SCORE.SYSTEM.CONST>
0

>  <SCORE.SYSTEM.DIHEDRAL>
1.22302

>  <SCORE.SYSTEM.POLAR>
-1.74603

>  <SCORE.SYSTEM.VDW>
-0.280846

>  <SCORE.SYSTEM.norm>
-0.186861

>  <SCORE.heavy>
30

>  <SCORE.norm>
0.375788

$$$$
Chem T&I AMSACS-12929
  rDOCK(R)          3D
libRbt.so/2021.1/901 2021/07/19
 23 24  0  0  0  0  0  0  0  0999 V2000
   -4.3922    4.8121   11.4658 S   0  0  0  0  0  0
   -2.7294    4.3101   11.7930 C   0  0  0  0  0  0
   -5.2472    3.5013   12.1378 N   0  0  0  0  0  0
   -6.1011    1.5619   15.7935 N   0  3  0  0  0  0
   -2.0384    3.5595   10.8415 C   0  0  0  0  0  0
   -0.7172    3.1890   11.0918 C   0  0  0  0  0  0
   -4.6577    6.0022   12.2497 O   0  0  0  0  0  0
   -4.5796    4.8128   10.0285 O   0  0  0  0  0  0
   -0.0943    3.5727   12.2802 C   0  0  0  0  0  0
   -6.8178    2.8663   15.5356 C   0  0  0  0  0  0
   -4.6485    1.6153   15.3820 C   0  0  0  0  0  0
   -2.1137    4.7050   12.9808 C   0  0  0  0  0  0
   -5.2733    3.2614   13.5896 C   0  0  0  0  0  0
   -0.7921    4.3293   13.2222 C   0  0  0  0  0  0
   -4.5556    1.9520   13.8927 C   0  0  0  0  0  0
   -6.7284    3.2071   14.0405 C   0  0  0  0  0  0
   -6.2559    1.1163   17.2217 C   0  0  0  0  0  0
    0.0175    2.4683   10.2435 F   0  0  0  0  0  0
    1.1682    3.1773   12.4427 F   0  0  0  0  0  0
   -5.9854   -0.3985   17.3472 C   0  0  0  0  0  0
   -5.4669    1.9052   18.2505 C   0  0  0  0  0  0
   -4.8637    2.6663   11.7184 H   0  0  0  0  0  0
   -6.5440    0.8670   15.2099 H   0  0  0  0  0  0
  1  2  1  0  0  0
  1  3  1  0  0  0
  1  7  2  0  0  0
  1  8  2  0  0  0
  2  5  1  0  0  0
  2 12  2  0  0  0
  3 13  1  0  0  0
  3 22  1  0  0  0
  4 10  1  0  0  0
  4 11  1  0  0  0
  4 17  1  0  0  0
  4 23  1  0  0  0
  5  6  2  0  0  0
  6  9  1  0  0  0
  6 18  1  0  0  0
  9 14  2  0  0  0
  9 19  1  0  0  0
 10 16  1  0  0  0
 11 15  1  0  0  0
 12 14  1  0  0  0
 13 15  1  0  0  0
 13 16  1  0  0  0
 17 20  1  0  0  0
 17 21  1  0  0  0
M  END
>  <$CLUSTER>
792

>  <CHROM.0>
2.51363472,171.38273648,75.22794987

>  <CHROM.1>
-3.70967240,3.19630146,13.27494151,0.83164579,0.21501318,-0.95904044

>  <INDEX>
519041

>  <Name>
Chem T&I AMSACS-12929

>  <RI>
-2.07807e+09

>  <Rbt.Current_Directory>
/aloy/home/acomajuncosa/PocketVec_v2/GitLab_repo

>  <Rbt.Executable>
rbdock ($Id: //depot/dev/client3/rdock/2021.1/src/exe/rbdock.cxx#4 $)

>  <Rbt.Library>
libRbt.so (2021.1, Build901 2021/07/19)

>  <Rbt.Parameter_File>
examples/2_pocketvec/rDock_results/dock.prm

>  <Rbt.Receptor>
examples/2_pocketvec/rDock_results/st_parameters.prm

>  <SCORE>
-5.15787

>  <SCORE.INTER>
0.4338

>  <SCORE.INTER.CONST>
1

>  <SCORE.INTER.POLAR>
-1.68701

>  <SCORE.INTER.REPUL>
0

>  <SCORE.INTER.ROT>
4

>  <SCORE.INTER.VDW>
-3.23038

>  <SCORE.INTER.norm>
0.0206571

>  <SCORE.INTRA>
-4.83436e-12

>  <SCORE.INTRA.DIHEDRAL>
-4.63629e-13

>  <SCORE.INTRA.DIHEDRAL.0>
4.49033

>  <SCORE.INTRA.POLAR>
0

>  <SCORE.INTRA.POLAR.0>
0

>  <SCORE.INTRA.REPUL>
0

>  <SCORE.INTRA.REPUL.0>
0

>  <SCORE.INTRA.VDW>
-4.60254e-12

>  <SCORE.INTRA.VDW.0>
1.87362

>  <SCORE.INTRA.norm>
-2.30207e-13

>  <SCORE.RESTR>
0

>  <SCORE.RESTR.CAVITY>
0

>  <SCORE.RESTR.norm>
0

>  <SCORE.SYSTEM>
-5.59167

>  <SCORE.SYSTEM.CONST>
0

>  <SCORE.SYSTEM.DIHEDRAL>
1.51209

>  <SCORE.SYSTEM.POLAR>
-1.75672

>  <SCORE.SYSTEM.VDW>
-0.374876

>  <SCORE.SYSTEM.norm>
-0.26627

>  <SCORE.heavy>
21

>  <SCORE.norm>
-0.245613

$$$$
Life Chemicals F0396-0052
  rDOCK(R)          3D
libRbt.so/2021.1/901 2021/07/19
 28 31  0  0  0  0  0  0  0  0999 V2000
   -5.2688    4.7809   12.4540 C   0  0  0  0  0  0
   -5.7639    5.1522   13.7205 N   0  0  0  0  0  0
   -5.8206    6.5125   13.8558 N   0  0  0  0  0  0
   -5.2535    5.9487   11.7206 C   0  0  0  0  0  0
   -4.8569    3.4883   12.1708 N   0  0  0  0  0  0
   -5.5858    6.9571   12.6314 C   0  0  0  0  0  0
   -4.4960    3.0299   10.9142 C   0  0  0  0  0  0
   -6.2046    4.3415   14.8074 C   0  0  0  0  0  0
   -5.0676    8.2414   10.4062 S   0  0  0  0  0  0
   -4.0443    1.5913   10.9694 C   0  0  0  0  0  0
   -4.5367    3.6322    9.8472 O   0  0  0  0  0  0
   -4.8968    6.3892   10.3595 C   0  0  0  0  0  0
   -5.5790    8.3575   12.1844 C   0  0  0  0  0  0
   -6.2280    4.8858   16.1018 C   0  0  0  0  0  0
   -6.6723    3.0375   14.6088 C   0  0  0  0  0  0
   -3.1789    1.1706    9.9111 C   0  0  0  0  0  0
   -4.4434    0.6746   11.9125 C   0  0  0  0  0  0
   -7.1094    2.8134   16.9800 C   0  0  0  0  0  0
   -3.1230   -1.0539   10.8515 C   0  0  0  0  0  0
   -7.1159    2.2765   15.6939 C   0  0  0  0  0  0
   -2.7215   -0.1477    9.8723 C   0  0  0  0  0  0
   -3.9840   -0.6440   11.8682 C   0  0  0  0  0  0
   -6.6701    4.1192   17.1816 C   0  0  0  0  0  0
   -7.5311    2.1670   18.1175 O   0  0  0  0  0  0
   -2.6119   -2.3224   10.6967 O   0  0  0  0  0  0
   -7.9971    0.8308   17.9642 C   0  0  0  0  0  0
   -2.9911   -3.2934   11.6656 C   0  0  0  0  0  0
   -4.8169    2.8317   12.9367 H   0  0  0  0  0  0
  1  2  1  0  0  0
  1  4  2  0  0  0
  1  5  1  0  0  0
  2  3  1  0  0  0
  2  8  1  0  0  0
  3  6  2  0  0  0
  4  6  1  0  0  0
  4 12  1  0  0  0
  5  7  1  0  0  0
  5 28  1  0  0  0
  6 13  1  0  0  0
  7 10  1  0  0  0
  7 11  2  0  0  0
  8 14  1  0  0  0
  8 15  2  0  0  0
  9 12  1  0  0  0
  9 13  1  0  0  0
 10 16  2  0  0  0
 10 17  1  0  0  0
 14 23  2  0  0  0
 15 20  1  0  0  0
 16 21  1  0  0  0
 17 22  2  0  0  0
 18 20  2  0  0  0
 18 23  1  0  0  0
 18 24  1  0  0  0
 19 21  2  0  0  0
 19 22  1  0  0  0
 19 25  1  0  0  0
 24 26  1  0  0  0
 25 27  1  0  0  0
M  END
>  <$CLUSTER>
411

>  <CHROM.0>
151.77754395,171.69880301,73.96924174

>  <CHROM.1>
-5.16992272,3.26680390,12.83443647,-2.27643619,-1.08172343,2.75906013

>  <INDEX>
269861

>  <Name>
Life Chemicals F0396-0052

>  <RI>
-2.07807e+09

>  <Rbt.Current_Directory>
/aloy/home/acomajuncosa/PocketVec_v2/GitLab_repo

>  <Rbt.Executable>
rbdock ($Id: //depot/dev/client3/rdock/2021.1/src/exe/rbdock.cxx#4 $)

>  <Rbt.Library>
libRbt.so (2021.1, Build901 2021/07/19)

>  <Rbt.Parameter_File>
examples/2_pocketvec/rDock_results/dock.prm

>  <Rbt.Receptor>
examples/2_pocketvec/rDock_results/st_parameters.prm

>  <SCORE>
28.9715

>  <SCORE.INTER>
34.1208

>  <SCORE.INTER.CONST>
1

>  <SCORE.INTER.POLAR>
-0.123143

>  <SCORE.INTER.REPUL>
0

>  <SCORE.INTER.ROT>
5

>  <SCORE.INTER.VDW>
24.1394

>  <SCORE.INTER.norm>
1.26373

>  <SCORE.INTRA>
3.17302e-12

>  <SCORE.INTRA.DIHEDRAL>
-2.70894e-12

>  <SCORE.INTRA.DIHEDRAL.0>
5.78224

>  <SCORE.INTRA.POLAR>
0

>  <SCORE.INTRA.POLAR.0>
0

>  <SCORE.INTRA.REPUL>
0

>  <SCORE.INTRA.REPUL.0>
0

>  <SCORE.INTRA.VDW>
4.52749e-12

>  <SCORE.INTRA.VDW.0>
3.63013

>  <SCORE.INTRA.norm>
1.17519e-13

>  <SCORE.RESTR>
0.0197974

>  <SCORE.RESTR.CAVITY>
0.0197974

>  <SCORE.RESTR.norm>
0.000733236

>  <SCORE.SYSTEM>
-5.16905

>  <SCORE.SYSTEM.CONST>
0

>  <SCORE.SYSTEM.DIHEDRAL>
2.43356

>  <SCORE.SYSTEM.POLAR>
-1.74646

>  <SCORE.SYSTEM.VDW>
-0.447867

>  <SCORE.SYSTEM.norm>
-0.191446

>  <SCORE.heavy>
27

>  <SCORE.norm>
1.07302

$$$$
Chem T&I AMSACS-08712
  rDOCK(R)          3D
libRbt.so/2021.1/901 2021/07/19
 24 26  0  0  0  0  0  0  0  0999 V2000
   -1.3859    3.8605   11.7680 C   0  0  0  0  0  0
   -1.2792    5.0622   13.0526 S   0  0  0  0  0  0
   -2.6207    3.3208   11.3223 C   0  0  0  0  0  0
   -6.0062    2.6838   17.8223 N   0  0  0  0  0  0
   -5.5959    1.9719   16.7536 N   0  0  0  0  0  0
   -3.8498    3.6158   11.7763 N   0  0  0  0  0  0
   -4.9200    2.6977   10.9022 S   0  0  0  0  0  0
   -2.6421    2.2927   10.2134 C   0  0  0  0  0  0
   -5.6038    0.6148   16.9591 C   0  0  0  0  0  0
   -6.0333    0.4463   18.2582 C   0  0  0  0  0  0
   -3.8798    1.8770    9.9028 N   0  0  0  0  0  0
   -6.2643    1.7478   18.7368 C   0  0  0  0  0  0
   -0.2236    3.3941   11.1289 C   0  0  0  0  0  0
    0.1225    5.2751   13.3549 O   0  0  0  0  0  0
   -2.1382    6.1631   12.6673 O   0  0  0  0  0  0
   -1.9798    4.2150   14.3539 N   0  0  0  0  0  0
   -0.2555    2.4316   10.0926 C   0  0  0  0  0  0
   -1.4411    1.8550    9.6051 C   0  0  0  0  0  0
   -5.2539    2.6855   15.5228 C   0  0  0  0  0  0
   -5.2030   -0.3852   15.9405 C   0  0  0  0  0  0
   -3.7756    3.0985   15.5504 C   0  0  0  0  0  0
   -6.7310    2.0819   20.0663 C   0  0  0  0  0  0
   -3.4082    3.8472   14.2869 C   0  0  0  0  0  0
   -1.8608    4.7878   15.1775 H   0  0  0  0  0  0
  1  2  1  0  0  0
  1  3  1  0  0  0
  1 13  2  0  0  0
  2 14  2  0  0  0
  2 15  2  0  0  0
  2 16  1  0  0  0
  3  6  2  0  0  0
  3  8  1  0  0  0
  4  5  1  0  0  0
  4 12  2  0  0  0
  5  9  1  0  0  0
  5 19  1  0  0  0
  6  7  1  0  0  0
  7 11  1  0  0  0
  8 11  2  0  0  0
  8 18  1  0  0  0
  9 10  2  0  0  0
  9 20  1  0  0  0
 10 12  1  0  0  0
 12 22  1  0  0  0
 13 17  1  0  0  0
 16 23  1  0  0  0
 16 24  1  0  0  0
 17 18  2  0  0  0
 19 21  1  0  0  0
 21 23  1  0  0  0
M  END
>  <$CLUSTER>
788

>  <CHROM.0>
3.73090037,171.20784485,77.01937049

>  <CHROM.1>
-3.44641883,2.97738964,13.75487306,-0.79485177,0.74634850,1.27217305

>  <INDEX>
516346

>  <Name>
Chem T&I AMSACS-08712

>  <RI>
-2.07807e+09

>  <Rbt.Current_Directory>
/aloy/home/acomajuncosa/PocketVec_v2/GitLab_repo

>  <Rbt.Executable>
rbdock ($Id: //depot/dev/client3/rdock/2021.1/src/exe/rbdock.cxx#4 $)

>  <Rbt.Library>
libRbt.so (2021.1, Build901 2021/07/19)

>  <Rbt.Parameter_File>
examples/2_pocketvec/rDock_results/dock.prm

>  <Rbt.Receptor>
examples/2_pocketvec/rDock_results/st_parameters.prm

>  <SCORE>
-5.97065

>  <SCORE.INTER>
-0.399731

>  <SCORE.INTER.CONST>
1

>  <SCORE.INTER.POLAR>
-0.682089

>  <SCORE.INTER.REPUL>
0.806645

>  <SCORE.INTER.ROT>
6

>  <SCORE.INTER.VDW>
-13.5139

>  <SCORE.INTER.norm>
-0.0173796

>  <SCORE.INTRA>
-7.04103e-13

>  <SCORE.INTRA.DIHEDRAL>
2.35811e-12

>  <SCORE.INTRA.DIHEDRAL.0>
3.54834

>  <SCORE.INTRA.POLAR>
0

>  <SCORE.INTRA.POLAR.0>
0

>  <SCORE.INTRA.REPUL>
0

>  <SCORE.INTRA.REPUL.0>
0

>  <SCORE.INTRA.VDW>
-1.88316e-12

>  <SCORE.INTRA.VDW.0>
-0.00195179

>  <SCORE.INTRA.norm>
-3.06132e-14

>  <SCORE.RESTR>
0

>  <SCORE.RESTR.CAVITY>
0

>  <SCORE.RESTR.norm>
0

>  <SCORE.SYSTEM>
-5.57091

>  <SCORE.SYSTEM.CONST>
0

>  <SCORE.SYSTEM.DIHEDRAL>
1.78597

>  <SCORE.SYSTEM.POLAR>
-1.77104

>  <SCORE.SYSTEM.VDW>
-0.442377

>  <SCORE.SYSTEM.norm>
-0.242214

>  <SCORE.heavy>
23

>  <SCORE.norm>
-0.259593

$$$$
Life Chemicals F0560-0107
  rDOCK(R)          3D
libRbt.so/2021.1/901 2021/07/19
 29 32  0  0  0  0  0  0  0  0999 V2000
   -2.7579    4.6213   12.9116 N   0  0  0  0  0  0
   -3.0455    2.4750   11.7513 C   0  0  0  0  0  0
   -3.6046    3.8607   11.9942 C   0  0  0  0  0  0
   -2.9541    4.7240   14.2840 C   0  0  0  0  0  0
   -1.6811    2.1345   11.7016 C   0  0  0  0  0  0
   -0.5757    2.9886   11.8518 N   0  0  0  0  0  0
   -0.4058    4.3129   12.1183 C   0  0  0  0  0  0
   -1.5775    5.2551   12.3388 C   0  0  0  0  0  0
   -4.0016    1.4488   11.5400 C   0  0  0  0  0  0
   -3.9932    4.6444   10.7442 C   0  0  0  0  0  0
   -2.2395    5.3762   15.0411 O   0  0  0  0  0  0
   -4.0846    4.0088   14.8922 C   0  0  0  0  0  0
    0.7373    4.7767   12.0689 O   0  0  0  0  0  0
   -1.3277    0.7880   11.4576 C   0  0  0  0  0  0
   -3.4514    4.3854    9.4683 C   0  0  0  0  0  0
   -4.9192    5.7002   10.8625 C   0  0  0  0  0  0
   -3.6296    0.1296   11.3040 C   0  0  0  0  0  0
   -4.7516    6.1792    8.5016 C   0  0  0  0  0  0
   -2.2865   -0.2029   11.2640 C   0  0  0  0  0  0
   -3.8302    5.1455    8.3602 C   0  0  0  0  0  0
   -5.2954    6.4576    9.7527 C   0  0  0  0  0  0
   -5.0592    6.8528    7.3924 F   0  0  0  0  0  0
   -5.2405    4.7199   15.2166 C   0  0  0  0  0  0
   -3.9773    2.6439   15.1556 C   0  0  0  0  0  0
   -4.6754   -0.9151   11.0951 C   0  0  0  0  0  0
   -6.3169    4.0427   15.7901 C   0  0  0  0  0  0
   -5.0589    1.9735   15.7284 C   0  0  0  0  0  0
   -6.2270    2.6721   16.0420 C   0  0  0  0  0  0
    0.3028    2.5043   11.7345 H   0  0  0  0  0  0
  1  3  1  0  0  0
  1  4  1  0  0  0
  1  8  1  0  0  0
  2  3  1  0  0  0
  2  5  2  0  0  0
  2  9  1  0  0  0
  3 10  1  0  0  0
  4 11  2  0  0  0
  4 12  1  0  0  0
  5  6  1  0  0  0
  5 14  1  0  0  0
  6  7  1  0  0  0
  6 29  1  0  0  0
  7  8  1  0  0  0
  7 13  2  0  0  0
  9 17  2  0  0  0
 10 15  2  0  0  0
 10 16  1  0  0  0
 12 23  2  0  0  0
 12 24  1  0  0  0
 14 19  2  0  0  0
 15 20  1  0  0  0
 16 21  2  0  0  0
 17 19  1  0  0  0
 17 25  1  0  0  0
 18 20  2  0  0  0
 18 21  1  0  0  0
 18 22  1  0  0  0
 23 26  1  0  0  0
 24 27  2  0  0  0
 26 28  2  0  0  0
 27 28  1  0  0  0
M  END
>  <$CLUSTER>
415

>  <CHROM.0>
1.91922648,172.08609299,74.51808117

>  <CHROM.1>
-3.41015281,3.66813300,12.11137618,1.62972609,-1.02520899,2.10611368

>  <INDEX>
274004

>  <Name>
Life Chemicals F0560-0107

>  <RI>
-2.07807e+09

>  <Rbt.Current_Directory>
/aloy/home/acomajuncosa/PocketVec_v2/GitLab_repo

>  <Rbt.Executable>
rbdock ($Id: //depot/dev/client3/rdock/2021.1/src/exe/rbdock.cxx#4 $)

>  <Rbt.Library>
libRbt.so (2021.1, Build901 2021/07/19)

>  <Rbt.Parameter_File>
examples/2_pocketvec/rDock_results/dock.prm

>  <Rbt.Receptor>
examples/2_pocketvec/rDock_results/st_parameters.prm

>  <SCORE>
-17.218

>  <SCORE.INTER>
-11.624

>  <SCORE.INTER.CONST>
1

>  <SCORE.INTER.POLAR>
0

>  <SCORE.INTER.REPUL>
0

>  <SCORE.INTER.ROT>
2

>  <SCORE.INTER.VDW>
-19.024

>  <SCORE.INTER.norm>
-0.415142

>  <SCORE.INTRA>
2.53131e-13

>  <SCORE.INTRA.DIHEDRAL>
3.05533e-13

>  <SCORE.INTRA.DIHEDRAL.0>
13.0929

>  <SCORE.INTRA.POLAR>
0

>  <SCORE.INTRA.POLAR.0>
0

>  <SCORE.INTRA.REPUL>
0

>  <SCORE.INTRA.REPUL.0>
0

>  <SCORE.INTRA.VDW>
1.00364e-13

>  <SCORE.INTRA.VDW.0>
-3.17222

>  <SCORE.INTRA.norm>
9.04039e-15

>  <SCORE.RESTR>
0

>  <SCORE.RESTR.CAVITY>
0

>  <SCORE.RESTR.norm>
0

>  <SCORE.SYSTEM>
-5.59401

>  <SCORE.SYSTEM.CONST>
0

>  <SCORE.SYSTEM.DIHEDRAL>
1.36109

>  <SCORE.SYSTEM.POLAR>
-1.75095

>  <SCORE.SYSTEM.VDW>
-0.321317

>  <SCORE.SYSTEM.norm>
-0.199786

>  <SCORE.heavy>
28

>  <SCORE.norm>
-0.614928

$$$$
Chemdiv 8005-4355
  rDOCK(R)          3D
libRbt.so/2021.1/901 2021/07/19
 30 32  0  0  0  0  0  0  0  0999 V2000
    0.0130   11.4420   13.5469 C   0  0  0  0  0  0
   -2.2464    2.9999   11.9565 N   0  0  0  0  0  0
   -0.9495    5.0075   11.9460 C   0  0  0  0  0  0
   -2.2070    4.3261   12.2398 N   0  0  0  0  0  0
   -1.0420   10.5943   13.2329 N   0  0  0  0  0  0
   -3.3205    2.3621   12.3299 C   0  0  0  0  0  0
   -1.0545    6.4859   12.3155 C   0  0  0  0  0  0
   -3.3826    0.8757   12.0663 C   0  0  0  0  0  0
    1.2050   11.1672   13.6239 O   0  0  0  0  0  0
   -0.4753   12.8464   13.8073 C   0  0  0  0  0  0
    0.0493    4.5274   11.4843 O   0  0  0  0  0  0
   -0.9799    9.1990   12.9301 C   0  0  0  0  0  0
    0.1864    7.1107   12.5838 C   0  0  0  0  0  0
   -2.2160    7.2073   12.3260 C   0  0  0  0  0  0
   -2.2235    0.2008   11.6594 C   0  0  0  0  0  0
   -4.5790    0.1559   12.1962 C   0  0  0  0  0  0
   -3.4434   -1.8799   11.5405 C   0  0  0  0  0  0
   -2.1895    8.5696   12.6413 C   0  0  0  0  0  0
    0.2072    8.4703   12.8993 C   0  0  0  0  0  0
   -4.6052   -1.2190   11.9362 C   0  0  0  0  0  0
   -2.2521   -1.1715   11.4005 C   0  0  0  0  0  0
   -3.4635   -3.6988   11.1981 Br  0  0  0  0  0  0
   -4.5080    2.9864   13.0289 C   0  0  0  0  0  0
    0.3672   13.6562   14.6280 C   0  0  0  0  0  0
   -1.6116   13.3951   13.2623 C   0  0  0  0  0  0
    0.0046   14.9769   14.9007 C   0  0  0  0  0  0
   -1.9693   14.7179   13.5370 C   0  0  0  0  0  0
   -1.1641   15.5064   14.3567 C   0  0  0  0  0  0
   -3.0010    4.8130   12.6309 H   0  0  0  0  0  0
   -1.9609   11.0139   13.2170 H   0  0  0  0  0  0
  1  5  1  0  0  0
  1  9  2  0  0  0
  1 10  1  0  0  0
  2  4  1  0  0  0
  2  6  2  0  0  0
  3  4  1  0  0  0
  3  7  1  0  0  0
  3 11  2  0  0  0
  4 29  1  0  0  0
  5 12  1  0  0  0
  5 30  1  0  0  0
  6  8  1  0  0  0
  6 23  1  0  0  0
  7 13  1  0  0  0
  7 14  2  0  0  0
  8 15  1  0  0  0
  8 16  2  0  0  0
 10 24  2  0  0  0
 10 25  1  0  0  0
 12 18  2  0  0  0
 12 19  1  0  0  0
 13 19  2  0  0  0
 14 18  1  0  0  0
 15 21  2  0  0  0
 16 20  1  0  0  0
 17 20  2  0  0  0
 17 21  1  0  0  0
 17 22  1  0  0  0
 24 26  1  0  0  0
 25 27  2  0  0  0
 26 28  2  0  0  0
 27 28  1  0  0  0
M  END
>  <$CLUSTER>
829

>  <CHROM.0>
171.50572970,171.98615912,73.94094891

>  <CHROM.1>
-1.96349055,4.91948951,12.47061471,-1.37897581,-0.13995286,-2.96351373

>  <INDEX>
104583

>  <Name>
Chemdiv 8005-4355

>  <RI>
-2.07807e+09

>  <Rbt.Current_Directory>
/aloy/home/acomajuncosa/PocketVec_v2/GitLab_repo

>  <Rbt.Executable>
rbdock ($Id: //depot/dev/client3/rdock/2021.1/src/exe/rbdock.cxx#4 $)

>  <Rbt.Library>
libRbt.so (2021.1, Build901 2021/07/19)

>  <Rbt.Parameter_File>
examples/2_pocketvec/rDock_results/dock.prm

>  <Rbt.Receptor>
examples/2_pocketvec/rDock_results/st_parameters.prm

>  <SCORE>
-9.86183

>  <SCORE.INTER>
-4.39731

>  <SCORE.INTER.CONST>
1

>  <SCORE.INTER.POLAR>
0

>  <SCORE.INTER.REPUL>
0

>  <SCORE.INTER.ROT>
5

>  <SCORE.INTER.VDW>
-14.7973

>  <SCORE.INTER.norm>
-0.157047

>  <SCORE.INTRA>
6.12843e-14

>  <SCORE.INTRA.DIHEDRAL>
4.35207e-14

>  <SCORE.INTRA.DIHEDRAL.0>
5.49115

>  <SCORE.INTRA.POLAR>
0

>  <SCORE.INTRA.POLAR.0>
0

>  <SCORE.INTRA.REPUL>
0

>  <SCORE.INTRA.REPUL.0>
0

>  <SCORE.INTRA.VDW>
3.95239e-14

>  <SCORE.INTRA.VDW.0>
2.15486

>  <SCORE.INTRA.norm>
2.18873e-15

>  <SCORE.RESTR>
0

>  <SCORE.RESTR.CAVITY>
0

>  <SCORE.RESTR.norm>
0

>  <SCORE.SYSTEM>
-5.46452

>  <SCORE.SYSTEM.CONST>
0

>  <SCORE.SYSTEM.DIHEDRAL>
1.41259

>  <SCORE.SYSTEM.POLAR>
-1.74623

>  <SCORE.SYSTEM.VDW>
-0.233637

>  <SCORE.SYSTEM.norm>
-0.195161

>  <SCORE.heavy>
28

>  <SCORE.norm>
-0.352208

$$$$
InterBioScreen STOCK5S-70232
  rDOCK(R)          3D
libRbt.so/2021.1/901 2021/07/19
 29 32  0  0  0  0  0  0  0  0999 V2000
   -4.4007    3.0383   13.0635 C   0  0  0  0  0  0
   -3.7679   -0.5874   10.7971 S   0  0  0  0  0  0
   -4.8984    1.8605   13.6308 N   0  0  0  0  0  0
   -5.0854    0.7437   12.6903 C   0  0  0  0  0  0
   -5.4544    1.3855   11.3432 C   0  0  0  0  0  0
   -3.9361    4.0725   13.6776 N   0  0  0  0  0  0
   -4.4566    2.9094   11.2806 S   0  0  0  0  0  0
   -3.7800   -0.0449   12.4952 C   0  0  0  0  0  0
   -5.1493    0.3900   10.2357 C   0  0  0  0  0  0
   -3.4403    5.2264   12.9473 C   0  0  0  0  0  0
   -5.2210    1.6770   14.9946 C   0  0  0  0  0  0
   -2.5620   -0.0954   10.1634 O   0  0  0  0  0  0
   -4.1462   -1.9845   10.7545 O   0  0  0  0  0  0
   -3.4667    5.2127   11.7200 O   0  0  0  0  0  0
   -5.2091    0.4068   15.6032 C   0  0  0  0  0  0
   -5.5870    2.7609   15.8169 C   0  0  0  0  0  0
   -2.9567    6.2961   13.7944 C   0  0  0  0  0  0
   -5.8743    1.3233   17.7394 C   0  0  0  0  0  0
   -5.9067    2.5886   17.1690 C   0  0  0  0  0  0
   -5.5271    0.2311   16.9556 C   0  0  0  0  0  0
   -2.4438    7.4864   13.0097 C   0  0  0  0  0  0
   -1.9320    8.6198   13.8991 C   0  0  0  0  0  0
   -6.1671    1.0261   19.0399 O   0  0  0  0  0  0
   -0.6021    8.6299   14.3183 C   0  0  0  0  0  0
   -2.8107    9.6021   14.3504 C   0  0  0  0  0  0
   -6.5316    2.1141   19.8825 C   0  0  0  0  0  0
   -2.3512   10.6155   15.1919 C   0  0  0  0  0  0
   -0.1443    9.6431   15.1602 C   0  0  0  0  0  0
   -1.0188   10.6365   15.5953 C   0  0  0  0  0  0
  1  3  1  0  0  0
  1  6  2  0  0  0
  1  7  1  0  0  0
  2  8  1  0  0  0
  2  9  1  0  0  0
  2 12  2  0  0  0
  2 13  2  0  0  0
  3  4  1  0  0  0
  3 11  1  0  0  0
  4  5  1  0  0  0
  4  8  1  0  0  0
  5  7  1  0  0  0
  5  9  1  0  0  0
  6 10  1  0  0  0
 10 14  2  0  0  0
 10 17  1  0  0  0
 11 15  1  0  0  0
 11 16  2  0  0  0
 15 20  2  0  0  0
 16 19  1  0  0  0
 17 21  1  0  0  0
 18 19  2  0  0  0
 18 20  1  0  0  0
 18 23  1  0  0  0
 21 22  1  0  0  0
 22 24  1  0  0  0
 22 25  2  0  0  0
 23 26  1  0  0  0
 24 28  2  0  0  0
 25 27  1  0  0  0
 27 29  2  0  0  0
 28 29  1  0  0  0
M  END
>  <$CLUSTER>
445

>  <CHROM.0>
170.95165302,172.71327375,73.64645720

>  <CHROM.1>
-3.98467214,3.34029594,13.75269533,-2.28653130,1.10704004,0.86941372

>  <INDEX>
385472

>  <Name>
InterBioScreen STOCK5S-70232

>  <RI>
-2.07807e+09

>  <Rbt.Current_Directory>
/aloy/home/acomajuncosa/PocketVec_v2/GitLab_repo

>  <Rbt.Executable>
rbdock ($Id: //depot/dev/client3/rdock/2021.1/src/exe/rbdock.cxx#4 $)

>  <Rbt.Library>
libRbt.so (2021.1, Build901 2021/07/19)

>  <Rbt.Parameter_File>
examples/2_pocketvec/rDock_results/dock.prm

>  <Rbt.Receptor>
examples/2_pocketvec/rDock_results/st_parameters.prm

>  <SCORE>
-10.9714

>  <SCORE.INTER>
-5.51353

>  <SCORE.INTER.CONST>
1

>  <SCORE.INTER.POLAR>
0

>  <SCORE.INTER.REPUL>
0.0347275

>  <SCORE.INTER.ROT>
6

>  <SCORE.INTER.VDW>
-17.0872

>  <SCORE.INTER.norm>
-0.190122

>  <SCORE.INTRA>
4.4329e-12

>  <SCORE.INTRA.DIHEDRAL>
-3.97904e-13

>  <SCORE.INTRA.DIHEDRAL.0>
4.29765

>  <SCORE.INTRA.POLAR>
0

>  <SCORE.INTRA.POLAR.0>
0

>  <SCORE.INTRA.REPUL>
0

>  <SCORE.INTRA.REPUL.0>
0

>  <SCORE.INTRA.VDW>
4.63185e-12

>  <SCORE.INTRA.VDW.0>
4.42418

>  <SCORE.INTRA.norm>
1.52859e-13

>  <SCORE.RESTR>
0

>  <SCORE.RESTR.CAVITY>
0

>  <SCORE.RESTR.norm>
0

>  <SCORE.SYSTEM>
-5.45786

>  <SCORE.SYSTEM.CONST>
0

>  <SCORE.SYSTEM.DIHEDRAL>
1.33833

>  <SCORE.SYSTEM.POLAR>
-1.74381

>  <SCORE.SYSTEM.VDW>
-0.198081

>  <SCORE.SYSTEM.norm>
-0.188202

>  <SCORE.heavy>
29

>  <SCORE.norm>
-0.378324

$$$$
Chembridge 5707467
  rDOCK(R)          3D
libRbt.so/2021.1/901 2021/07/19
 29 31  0  0  0  0  0  0  0  0999 V2000
   -4.5988    1.7979   10.8297 S   0  0  0  0  0  0
   -3.1467    0.9585   10.4622 N   0  0  0  0  0  0
    1.5004    4.2572    9.9400 C   0  0  0  0  0  0
    2.0502    4.7953   11.0824 N   0  0  0  0  0  0
   -5.7252    0.9149   10.5879 O   0  0  0  0  0  0
   -4.5761    3.1257   10.2471 O   0  0  0  0  0  0
   -4.4633    1.9881   12.5958 C   0  0  0  0  0  0
   -1.9434    1.7506   10.3504 C   0  0  0  0  0  0
    0.3120    3.3837   10.1132 C   0  0  0  0  0  0
    4.5168    6.8404   12.8836 C   0  0  0  0  0  0
    3.1295    5.6291   11.2936 C   0  0  0  0  0  0
    3.4365    5.9978   12.6111 C   0  0  0  0  0  0
    1.9390    4.4777    8.8160 O   0  0  0  0  0  0
    5.3021    7.3244   11.8417 C   0  0  0  0  0  0
   -1.0536    1.8783   11.4230 C   0  0  0  0  0  0
   -1.7120    2.4617    9.1684 C   0  0  0  0  0  0
   -0.5823    3.2722    9.0492 C   0  0  0  0  0  0
    0.0754    2.6899   11.2994 C   0  0  0  0  0  0
    5.0049    6.9644   10.5285 C   0  0  0  0  0  0
    3.9238    6.1209   10.2525 C   0  0  0  0  0  0
   -2.9932   -0.4324   10.9536 C   0  0  0  0  0  0
    4.8256    7.2178   14.2959 C   0  0  0  0  0  0
   -4.9645    0.9977   13.4539 C   0  0  0  0  0  0
   -3.8898    3.1512   13.1324 C   0  0  0  0  0  0
    6.4569    8.2262   12.1260 C   0  0  0  0  0  0
   -3.8078    3.3125   14.5164 C   0  0  0  0  0  0
   -4.8794    1.1667   14.8369 C   0  0  0  0  0  0
   -4.3025    2.3215   15.3664 C   0  0  0  0  0  0
    1.5703    4.5281   11.9298 H   0  0  0  0  0  0
  1  2  1  0  0  0
  1  5  2  0  0  0
  1  6  2  0  0  0
  1  7  1  0  0  0
  2  8  1  0  0  0
  2 21  1  0  0  0
  3  4  1  0  0  0
  3  9  1  0  0  0
  3 13  2  0  0  0
  4 11  1  0  0  0
  4 29  1  0  0  0
  7 23  1  0  0  0
  7 24  2  0  0  0
  8 15  1  0  0  0
  8 16  2  0  0  0
  9 17  2  0  0  0
  9 18  1  0  0  0
 10 12  2  0  0  0
 10 14  1  0  0  0
 10 22  1  0  0  0
 11 12  1  0  0  0
 11 20  2  0  0  0
 14 19  2  0  0  0
 14 25  1  0  0  0
 15 18  2  0  0  0
 16 17  1  0  0  0
 19 20  1  0  0  0
 23 27  2  0  0  0
 24 26  1  0  0  0
 26 28  2  0  0  0
 27 28  1  0  0  0
M  END
>  <$CLUSTER>
115

>  <CHROM.0>
176.13807987,70.23392901,76.08722317

>  <CHROM.1>
-0.59836835,3.55984919,11.51483111,-3.03330629,0.51253930,1.30236801

>  <INDEX>
51140

>  <Name>
Chembridge 5707467

>  <RI>
-2.07807e+09

>  <Rbt.Current_Directory>
/aloy/home/acomajuncosa/PocketVec_v2/GitLab_repo

>  <Rbt.Executable>
rbdock ($Id: //depot/dev/client3/rdock/2021.1/src/exe/rbdock.cxx#4 $)

>  <Rbt.Library>
libRbt.so (2021.1, Build901 2021/07/19)

>  <Rbt.Parameter_File>
examples/2_pocketvec/rDock_results/dock.prm

>  <Rbt.Receptor>
examples/2_pocketvec/rDock_results/st_parameters.prm

>  <SCORE>
-13.5829

>  <SCORE.INTER>
-11.1842

>  <SCORE.INTER.CONST>
1

>  <SCORE.INTER.POLAR>
-0.434803

>  <SCORE.INTER.REPUL>
0.0276516

>  <SCORE.INTER.ROT>
5

>  <SCORE.INTER.VDW>
-20.2442

>  <SCORE.INTER.norm>
-0.399437

>  <SCORE.INTRA>
-8.21121e-13

>  <SCORE.INTRA.DIHEDRAL>
-4.92051e-13

>  <SCORE.INTRA.DIHEDRAL.0>
4.55993

>  <SCORE.INTRA.POLAR>
0

>  <SCORE.INTRA.POLAR.0>
0

>  <SCORE.INTRA.REPUL>
0

>  <SCORE.INTRA.REPUL.0>
0

>  <SCORE.INTRA.VDW>
-5.75096e-13

>  <SCORE.INTRA.VDW.0>
-2.01952

>  <SCORE.INTRA.norm>
-2.93257e-14

>  <SCORE.RESTR>
0

>  <SCORE.RESTR.CAVITY>
0

>  <SCORE.RESTR.norm>
0

>  <SCORE.SYSTEM>
-2.39864

>  <SCORE.SYSTEM.CONST>
0

>  <SCORE.SYSTEM.DIHEDRAL>
1.79567

>  <SCORE.SYSTEM.POLAR>
-0.76864

>  <SCORE.SYSTEM.VDW>
-0.683091

>  <SCORE.SYSTEM.norm>
-0.0856656

>  <SCORE.heavy>
28

>  <SCORE.norm>
-0.485102

$$$$
Asinex ASN 04371767
  rDOCK(R)          3D
libRbt.so/2021.1/901 2021/07/19
 31 34  0  0  0  0  0  0  0  0999 V2000
   -4.8169    2.8860   12.9772 N   0  0  0  0  0  0
   -4.4619    2.0616   11.9076 C   0  0  0  0  0  0
   -4.2836    2.7798   10.8219 N   0  0  0  0  0  0
   -4.8279    4.1543   12.4170 C   0  0  0  0  0  0
   -4.5121    4.0864   11.1410 N   0  0  0  0  0  0
   -5.0726    2.3653   14.2816 C   0  0  0  0  0  0
   -4.3448    0.6650   12.0990 C   0  0  0  0  0  0
   -4.9467    0.9661   14.4365 C   0  0  0  0  0  0
   -4.5719    0.1217   13.2985 C   0  0  0  0  0  0
   -5.1913    5.6452   13.2211 S   0  0  0  0  0  0
   -5.4330    3.1413   15.3849 C   0  0  0  0  0  0
    1.1461   10.8048   14.3244 C   0  0  0  0  0  0
   -3.5482    6.9749   11.4729 C   0  0  0  0  0  0
   -5.1803    0.3728   15.6842 C   0  0  0  0  0  0
   -0.2024   10.5095   14.4803 N   0  0  0  0  0  0
   -2.6911    7.9091   12.2914 C   0  0  0  0  0  0
   -5.0071    6.8459   11.8846 C   0  0  0  0  0  0
    1.9258   10.3565   13.4906 O   0  0  0  0  0  0
   -3.0734    6.3319   10.5328 O   0  0  0  0  0  0
   -1.3373    8.0228   11.9135 C   0  0  0  0  0  0
   -3.1814    8.6363   13.3498 C   0  0  0  0  0  0
   -0.9950    9.6132   13.7006 C   0  0  0  0  0  0
   -5.5386    1.1576   16.7754 C   0  0  0  0  0  0
   -5.6634    2.5359   16.6249 C   0  0  0  0  0  0
   -2.3350    9.4920   14.0613 C   0  0  0  0  0  0
   -0.4975    8.8790   12.6274 C   0  0  0  0  0  0
   -3.9598   -0.1851   10.9183 C   0  0  0  0  0  0
   -5.7388    0.4575   17.9400 O   0  0  0  0  0  0
    1.6083   11.8044   15.3554 C   0  0  0  0  0  0
   -6.1087    1.2114   19.0887 C   0  0  0  0  0  0
   -0.6785   10.9846   15.2340 H   0  0  0  0  0  0
  1  2  1  0  0  0
  1  4  1  0  0  0
  1  6  1  0  0  0
  2  3  2  0  0  0
  2  7  1  0  0  0
  3  5  1  0  0  0
  4  5  2  0  0  0
  4 10  1  0  0  0
  6  8  2  0  0  0
  6 11  1  0  0  0
  7  9  2  0  0  0
  7 27  1  0  0  0
  8  9  1  0  0  0
  8 14  1  0  0  0
 10 17  1  0  0  0
 11 24  2  0  0  0
 12 15  1  0  0  0
 12 18  2  0  0  0
 12 29  1  0  0  0
 13 16  1  0  0  0
 13 17  1  0  0  0
 13 19  2  0  0  0
 14 23  2  0  0  0
 15 22  1  0  0  0
 15 31  1  0  0  0
 16 20  1  0  0  0
 16 21  2  0  0  0
 20 26  2  0  0  0
 21 25  1  0  0  0
 22 25  2  0  0  0
 22 26  1  0  0  0
 23 24  1  0  0  0
 23 28  1  0  0  0
 28 30  1  0  0  0
M  END
>  <$CLUSTER>
255

>  <CHROM.0>
0.05205226,-175.44573391,75.48501155

>  <CHROM.1>
-3.47007344,5.08006717,13.62214035,3.02419228,1.05640966,1.56914909

>  <INDEX>
138217

>  <Name>
Asinex ASN 04371767

>  <RI>
-2.07807e+09

>  <Rbt.Current_Directory>
/aloy/home/acomajuncosa/PocketVec_v2/GitLab_repo

>  <Rbt.Executable>
rbdock ($Id: //depot/dev/client3/rdock/2021.1/src/exe/rbdock.cxx#4 $)

>  <Rbt.Library>
libRbt.so (2021.1, Build901 2021/07/19)

>  <Rbt.Parameter_File>
examples/2_pocketvec/rDock_results/dock.prm

>  <Rbt.Receptor>
examples/2_pocketvec/rDock_results/st_parameters.prm

>  <SCORE>
-13.4614

>  <SCORE.INTER>
-8.44554

>  <SCORE.INTER.CONST>
1

>  <SCORE.INTER.POLAR>
-0.487721

>  <SCORE.INTER.REPUL>
0.0417692

>  <SCORE.INTER.ROT>
6

>  <SCORE.INTER.VDW>
-18.3961

>  <SCORE.INTER.norm>
-0.281518

>  <SCORE.INTRA>
3.68372e-13

>  <SCORE.INTRA.DIHEDRAL>
2.3892e-13

>  <SCORE.INTRA.DIHEDRAL.0>
1.44145

>  <SCORE.INTRA.POLAR>
0

>  <SCORE.INTRA.POLAR.0>
0

>  <SCORE.INTRA.REPUL>
0

>  <SCORE.INTRA.REPUL.0>
0

>  <SCORE.INTRA.VDW>
2.48912e-13

>  <SCORE.INTRA.VDW.0>
1.40962

>  <SCORE.INTRA.norm>
1.22791e-14

>  <SCORE.RESTR>
0

>  <SCORE.RESTR.CAVITY>
0

>  <SCORE.RESTR.norm>
0

>  <SCORE.SYSTEM>
-5.01586

>  <SCORE.SYSTEM.CONST>
0

>  <SCORE.SYSTEM.DIHEDRAL>
1.2869

>  <SCORE.SYSTEM.POLAR>
-1.75879

>  <SCORE.SYSTEM.VDW>
0.320587

>  <SCORE.SYSTEM.norm>
-0.167195

>  <SCORE.heavy>
30

>  <SCORE.norm>
-0.448713

$$$$
A-Synthese-Biotech EX-14747
  rDOCK(R)          3D
libRbt.so/2021.1/901 2021/07/19
 32 35  0  0  0  0  0  0  0  0999 V2000
   -2.3859    3.4968   10.7117 C   0  0  0  0  0  0
    1.2164    4.3339   10.8405 C   0  0  0  0  0  0
   -0.9865    3.3424   10.8449 C   0  0  0  0  0  0
   -0.2024    4.4873   10.7088 O   0  0  0  0  0  0
   -5.4071    7.2404   11.1022 C   0  0  0  0  0  0
   -3.2600    2.3811   10.8289 C   0  0  0  0  0  0
   -5.5646    8.6791   10.6096 C   0  0  0  0  0  0
   -4.0033    5.3424   10.8246 N   0  0  0  0  0  0
    1.8818    5.6311   10.6691 C   0  0  0  0  0  0
   -2.8622    4.8658   10.4353 C   0  0  0  0  0  0
   -4.2497    6.6099   10.4748 N   0  0  0  0  0  0
    1.7375    3.2598   11.0608 O   0  0  0  0  0  0
   -0.4574    2.0772   11.1220 C   0  0  0  0  0  0
   -6.1626    6.7477   11.8962 O   0  0  0  0  0  0
   -6.7126   10.7667   11.1131 N   0  0  0  0  0  0
   -2.6871    1.1115   11.1139 C   0  0  0  0  0  0
   -1.3015    0.9795   11.2607 C   0  0  0  0  0  0
    1.2012    6.8155   10.4178 C   0  0  0  0  0  0
    3.2760    5.6263   10.7742 C   0  0  0  0  0  0
    3.3053    8.0086   10.3721 C   0  0  0  0  0  0
   -6.4256    9.4626   11.3961 C   0  0  0  0  0  0
    3.9854    6.8190   10.6236 C   0  0  0  0  0  0
    1.9154    8.0071   10.2688 C   0  0  0  0  0  0
    4.1833    9.4561   10.1915 Cl  0  0  0  0  0  0
   -5.0039    9.2281    9.4956 C   0  0  0  0  0  0
   -4.6654    2.4234   10.6567 C   0  0  0  0  0  0
   -6.1241   11.2836   10.0049 C   0  0  0  0  0  0
   -3.4991   -0.0273   11.2433 C   0  0  0  0  0  0
   -5.2750   10.5597    9.1767 C   0  0  0  0  0  0
   -5.4611    1.2823   10.7841 C   0  0  0  0  0  0
   -4.8787    0.0576   11.0814 C   0  0  0  0  0  0
   -3.6675    7.1035    9.8136 H   0  0  0  0  0  0
  1  3  2  0  0  0
  1  6  1  0  0  0
  1 10  1  0  0  0
  2  4  1  0  0  0
  2  9  1  0  0  0
  2 12  2  0  0  0
  3  4  1  0  0  0
  3 13  1  0  0  0
  5  7  1  0  0  0
  5 11  1  0  0  0
  5 14  2  0  0  0
  6 16  2  0  0  0
  6 26  1  0  0  0
  7 21  2  0  0  0
  7 25  1  0  0  0
  8 10  2  0  0  0
  8 11  1  0  0  0
  9 18  1  0  0  0
  9 19  2  0  0  0
 11 32  1  0  0  0
 13 17  2  0  0  0
 15 21  1  0  0  0
 15 27  2  0  0  0
 16 17  1  0  0  0
 16 28  1  0  0  0
 18 23  2  0  0  0
 19 22  1  0  0  0
 20 22  2  0  0  0
 20 23  1  0  0  0
 20 24  1  0  0  0
 25 29  2  0  0  0
 26 30  2  0  0  0
 27 29  1  0  0  0
 28 31  2  0  0  0
 30 31  1  0  0  0
M  END
>  <$CLUSTER>
311

>  <CHROM.0>
175.95459227,171.23649879,75.09593558

>  <CHROM.1>
-1.78898482,5.71859507,10.69333258,-3.02950643,0.02721654,-0.08454968

>  <INDEX>
197938

>  <Name>
A-Synthese-Biotech EX-14747

>  <RI>
-2.07807e+09

>  <Rbt.Current_Directory>
/aloy/home/acomajuncosa/PocketVec_v2/GitLab_repo

>  <Rbt.Executable>
rbdock ($Id: //depot/dev/client3/rdock/2021.1/src/exe/rbdock.cxx#4 $)

>  <Rbt.Library>
libRbt.so (2021.1, Build901 2021/07/19)

>  <Rbt.Parameter_File>
examples/2_pocketvec/rDock_results/dock.prm

>  <Rbt.Receptor>
examples/2_pocketvec/rDock_results/st_parameters.prm

>  <SCORE>
-12.1543

>  <SCORE.INTER>
-6.71412

>  <SCORE.INTER.CONST>
1

>  <SCORE.INTER.POLAR>
-0.620556

>  <SCORE.INTER.REPUL>
0

>  <SCORE.INTER.ROT>
6

>  <SCORE.INTER.VDW>
-16.0042

>  <SCORE.INTER.norm>
-0.216584

>  <SCORE.INTRA>
6.61693e-13

>  <SCORE.INTRA.DIHEDRAL>
1.53921e-12

>  <SCORE.INTRA.DIHEDRAL.0>
4.73351

>  <SCORE.INTRA.POLAR>
0

>  <SCORE.INTRA.POLAR.0>
0

>  <SCORE.INTRA.REPUL>
0

>  <SCORE.INTRA.REPUL.0>
0

>  <SCORE.INTRA.VDW>
-1.07914e-13

>  <SCORE.INTRA.VDW.0>
2.1922

>  <SCORE.INTRA.norm>
2.13449e-14

>  <SCORE.RESTR>
0

>  <SCORE.RESTR.CAVITY>
0

>  <SCORE.RESTR.norm>
0

>  <SCORE.SYSTEM>
-5.44018

>  <SCORE.SYSTEM.CONST>
0

>  <SCORE.SYSTEM.DIHEDRAL>
1.53247

>  <SCORE.SYSTEM.POLAR>
-1.75565

>  <SCORE.SYSTEM.VDW>
-0.237211

>  <SCORE.SYSTEM.norm>
-0.17549

>  <SCORE.heavy>
31

>  <SCORE.norm>
-0.392074

$$$$
InterBioScreen STOCK3S-81928
  rDOCK(R)          3D
libRbt.so/2021.1/901 2021/07/19
 32 35  0  0  0  0  0  0  0  0999 V2000
   -3.6656    2.8465   11.4617 N   0  0  0  0  0  0
   -4.0258    4.1710   11.2801 C   0  0  0  0  0  0
   -2.8075    2.5009   10.4262 C   0  0  0  0  0  0
   -2.5729    3.6017    9.6152 C   0  0  0  0  0  0
   -3.3525    4.6565   10.1634 C   0  0  0  0  0  0
   -4.8990    4.8896   12.0174 N   0  0  0  0  0  0
   -3.5089    5.9409    9.7454 N   0  0  0  0  0  0
   -4.0462    1.9449   12.4234 N   0  0  0  0  0  0
   -1.6999    3.6000    8.4438 C   0  0  0  0  0  0
   -5.0369    6.1553   11.5808 C   0  0  0  0  0  0
   -4.3649    6.6636   10.4889 C   0  0  0  0  0  0
   -4.4254    2.4010   13.5663 C   0  0  0  0  0  0
   -2.3319    1.2407   10.3492 N   0  0  0  0  0  0
   -1.0849    2.6024    8.0740 O   0  0  0  0  0  0
   -5.2734   -0.6838   15.5260 N   0  0  0  0  0  0
   -4.8596    1.5480   14.6732 C   0  0  0  0  0  0
   -1.6101    4.8018    7.7761 N   0  0  0  0  0  0
   -4.8809    0.1663   14.5335 C   0  0  0  0  0  0
   -5.6566   -0.1065   16.6957 C   0  0  0  0  0  0
   -4.5872    8.0234   10.1017 C   0  0  0  0  0  0
   -5.9301    7.0075   12.3050 C   0  0  0  0  0  0
   -5.2553    2.1089   15.8785 C   0  0  0  0  0  0
   -0.8186    5.0554    6.6030 C   0  0  0  0  0  0
    0.6105    5.4177    6.9645 C   0  0  0  0  0  0
    1.4595    5.7015    5.7341 C   0  0  0  0  0  0
   -5.6629    1.2669   16.9140 C   0  0  0  0  0  0
    2.8873    6.0631    6.1008 C   0  0  0  0  0  0
   -5.4623    8.8418   10.8160 C   0  0  0  0  0  0
   -6.1358    8.3310   11.9208 C   0  0  0  0  0  0
   -1.6970    0.9853    9.6062 H   0  0  0  0  0  0
   -2.6102    0.5533   11.0345 H   0  0  0  0  0  0
   -2.1483    5.5740    8.1432 H   0  0  0  0  0  0
  1  2  1  0  0  0
  1  3  1  0  0  0
  1  8  1  0  0  0
  2  5  2  0  0  0
  2  6  1  0  0  0
  3  4  2  0  0  0
  3 13  1  0  0  0
  4  5  1  0  0  0
  4  9  1  0  0  0
  5  7  1  0  0  0
  6 10  2  0  0  0
  7 11  2  0  0  0
  8 12  2  0  0  0
  9 14  2  0  0  0
  9 17  1  0  0  0
 10 11  1  0  0  0
 10 21  1  0  0  0
 11 20  1  0  0  0
 12 16  1  0  0  0
 13 30  1  0  0  0
 13 31  1  0  0  0
 15 18  2  0  0  0
 15 19  1  0  0  0
 16 18  1  0  0  0
 16 22  2  0  0  0
 17 23  1  0  0  0
 17 32  1  0  0  0
 19 26  2  0  0  0
 20 28  2  0  0  0
 21 29  2  0  0  0
 22 26  1  0  0  0
 23 24  1  0  0  0
 24 25  1  0  0  0
 25 27  1  0  0  0
 28 29  1  0  0  0
M  END
>  <$CLUSTER>
529

>  <CHROM.0>
3.34980204,171.07785158,74.05652139

>  <CHROM.1>
-3.32326380,4.00337379,11.02152495,-2.32706817,0.77500129,-0.50503366

>  <INDEX>
345754

>  <Name>
InterBioScreen STOCK3S-81928

>  <RI>
-2.07807e+09

>  <Rbt.Current_Directory>
/aloy/home/acomajuncosa/PocketVec_v2/GitLab_repo

>  <Rbt.Executable>
rbdock ($Id: //depot/dev/client3/rdock/2021.1/src/exe/rbdock.cxx#4 $)

>  <Rbt.Library>
libRbt.so (2021.1, Build901 2021/07/19)

>  <Rbt.Parameter_File>
examples/2_pocketvec/rDock_results/dock.prm

>  <Rbt.Receptor>
examples/2_pocketvec/rDock_results/st_parameters.prm

>  <SCORE>
-12.8086

>  <SCORE.INTER>
-7.20088

>  <SCORE.INTER.CONST>
1

>  <SCORE.INTER.POLAR>
-0.100972

>  <SCORE.INTER.REPUL>
0.0394025

>  <SCORE.INTER.ROT>
6

>  <SCORE.INTER.VDW>
-18.4546

>  <SCORE.INTER.norm>
-0.248306

>  <SCORE.INTRA>
1.19638e-13

>  <SCORE.INTRA.DIHEDRAL>
4.88942e-13

>  <SCORE.INTRA.DIHEDRAL.0>
2.34631

>  <SCORE.INTRA.POLAR>
-5.50671e-14

>  <SCORE.INTRA.POLAR.0>
-0.761434

>  <SCORE.INTRA.REPUL>
0

>  <SCORE.INTRA.REPUL.0>
0

>  <SCORE.INTRA.VDW>
6.23945e-14

>  <SCORE.INTRA.VDW.0>
-1.77711

>  <SCORE.INTRA.norm>
4.12544e-15

>  <SCORE.RESTR>
0

>  <SCORE.RESTR.CAVITY>
0

>  <SCORE.RESTR.norm>
0

>  <SCORE.SYSTEM>
-5.60772

>  <SCORE.SYSTEM.CONST>
0

>  <SCORE.SYSTEM.DIHEDRAL>
1.3908

>  <SCORE.SYSTEM.POLAR>
-1.74718

>  <SCORE.SYSTEM.VDW>
-0.362723

>  <SCORE.SYSTEM.norm>
-0.19337

>  <SCORE.heavy>
29

>  <SCORE.norm>
-0.441676

$$$$
Nanosyn NS61821
  rDOCK(R)          3D
libRbt.so/2021.1/901 2021/07/19
 31 33  0  0  0  0  0  0  0  0999 V2000
   -3.6996    0.3794   10.8334 S   0  0  0  0  0  0
   -4.9392    1.2944   11.4977 N   0  0  0  0  0  0
   -4.7685    1.6348   12.8383 C   0  0  0  0  0  0
    1.3667    5.0613    9.7993 C   0  0  0  0  0  0
   -5.0932    0.7170   13.7615 N   0  0  0  0  0  0
   -4.2560    2.8531   13.0588 N   0  0  0  0  0  0
    2.6216    5.7826   10.2286 C   0  0  0  0  0  0
   -2.3267    1.5339   10.7875 C   0  0  0  0  0  0
    0.9640    4.1410   10.7590 N   0  0  0  0  0  0
   -4.0823    0.0909    9.4571 O   0  0  0  0  0  0
   -3.3544   -0.7249   11.7157 O   0  0  0  0  0  0
   -4.8865    1.0938   15.0438 C   0  0  0  0  0  0
   -4.0736    3.1760   14.3590 C   0  0  0  0  0  0
    2.8349    7.0654    9.6376 C   0  0  0  0  0  0
    3.5738    5.2648   11.0743 C   0  0  0  0  0  0
    0.8334    5.3151    8.7244 O   0  0  0  0  0  0
   -4.3747    2.3249   15.4039 C   0  0  0  0  0  0
    4.7203    5.9958   11.3923 C   0  0  0  0  0  0
    3.9836    7.7920    9.9592 C   0  0  0  0  0  0
   -2.1589    2.3540    9.6802 C   0  0  0  0  0  0
   -1.4384    1.5551   11.8566 C   0  0  0  0  0  0
   -0.1752    3.2721   10.7151 C   0  0  0  0  0  0
    4.9235    7.2592   10.8374 C   0  0  0  0  0  0
   -0.3564    2.4357   11.8182 C   0  0  0  0  0  0
   -1.0737    3.2319    9.6478 C   0  0  0  0  0  0
   -5.2418    0.1018   16.1119 C   0  0  0  0  0  0
   -3.4985    4.5777   14.6534 C   0  0  0  0  0  0
    5.7316    5.4184   12.3299 C   0  0  0  0  0  0
    4.2051    9.1443    9.3612 C   0  0  0  0  0  0
   -5.7499    1.5780   10.9653 H   0  0  0  0  0  0
    1.5415    4.0768   11.5850 H   0  0  0  0  0  0
  1  2  1  0  0  0
  1  8  1  0  0  0
  1 10  2  0  0  0
  1 11  2  0  0  0
  2  3  1  0  0  0
  2 30  1  0  0  0
  3  5  2  0  0  0
  3  6  1  0  0  0
  4  7  1  0  0  0
  4  9  1  0  0  0
  4 16  2  0  0  0
  5 12  1  0  0  0
  6 13  2  0  0  0
  7 14  1  0  0  0
  7 15  2  0  0  0
  8 20  1  0  0  0
  8 21  2  0  0  0
  9 22  1  0  0  0
  9 31  1  0  0  0
 12 17  2  0  0  0
 12 26  1  0  0  0
 13 17  1  0  0  0
 13 27  1  0  0  0
 14 19  2  0  0  0
 15 18  1  0  0  0
 18 23  2  0  0  0
 18 28  1  0  0  0
 19 23  1  0  0  0
 19 29  1  0  0  0
 20 25  2  0  0  0
 21 24  1  0  0  0
 22 24  2  0  0  0
 22 25  1  0  0  0
M  END
>  <$CLUSTER>
997

>  <CHROM.0>
3.94408253,172.95644391,71.62832239

>  <CHROM.1>
-1.00980562,3.27088825,11.59156771,3.07595721,0.64628281,1.24028456

>  <INDEX>
566297

>  <Name>
Nanosyn NS61821

>  <RI>
-2.07807e+09

>  <Rbt.Current_Directory>
/aloy/home/acomajuncosa/PocketVec_v2/GitLab_repo

>  <Rbt.Executable>
rbdock ($Id: //depot/dev/client3/rdock/2021.1/src/exe/rbdock.cxx#4 $)

>  <Rbt.Library>
libRbt.so (2021.1, Build901 2021/07/19)

>  <Rbt.Parameter_File>
examples/2_pocketvec/rDock_results/dock.prm

>  <Rbt.Receptor>
examples/2_pocketvec/rDock_results/st_parameters.prm

>  <SCORE>
-18.2935

>  <SCORE.INTER>
-12.7001

>  <SCORE.INTER.CONST>
1

>  <SCORE.INTER.POLAR>
-0.894427

>  <SCORE.INTER.REPUL>
0.105537

>  <SCORE.INTER.ROT>
5

>  <SCORE.INTER.VDW>
-20.5868

>  <SCORE.INTER.norm>
-0.437936

>  <SCORE.INTRA>
-4.75175e-13

>  <SCORE.INTRA.DIHEDRAL>
9.59233e-14

>  <SCORE.INTRA.DIHEDRAL.0>
17.4362

>  <SCORE.INTRA.POLAR>
0

>  <SCORE.INTRA.POLAR.0>
0

>  <SCORE.INTRA.REPUL>
0

>  <SCORE.INTRA.REPUL.0>
0

>  <SCORE.INTRA.VDW>
-5.23137e-13

>  <SCORE.INTRA.VDW.0>
-2.74645

>  <SCORE.INTRA.norm>
-1.63854e-14

>  <SCORE.RESTR>
0

>  <SCORE.RESTR.CAVITY>
0

>  <SCORE.RESTR.norm>
0

>  <SCORE.SYSTEM>
-5.59332

>  <SCORE.SYSTEM.CONST>
0

>  <SCORE.SYSTEM.DIHEDRAL>
0.971385

>  <SCORE.SYSTEM.POLAR>
-1.727

>  <SCORE.SYSTEM.VDW>
-0.207227

>  <SCORE.SYSTEM.norm>
-0.192873

>  <SCORE.heavy>
29

>  <SCORE.norm>
-0.630809

$$$$
Asinex ASN 05317597
  rDOCK(R)          3D
libRbt.so/2021.1/901 2021/07/19
 31 33  0  0  0  0  0  0  0  0999 V2000
   -0.7303    5.1959   11.3760 C   0  0  0  0  0  0
   -1.8926    3.7895   12.9631 C   0  0  0  0  0  0
   -0.6803    3.3174   12.7596 N   0  0  0  0  0  0
   -2.2881    5.2036   12.0849 S   0  0  0  0  0  0
   -0.0161    4.1199   11.8541 C   0  0  0  0  0  0
   -0.3108    6.2171   10.4171 C   0  0  0  0  0  0
   -2.7918    3.1865   13.8267 N   0  0  0  0  0  0
   -6.8176    0.2799   17.9031 N   0  3  0  0  0  0
   -4.0857    3.6028   14.1096 C   0  0  0  0  0  0
   -1.2417    7.1915   10.1171 N   0  0  0  0  0  0
   -6.1459    1.1122   16.9622 C   0  0  0  0  0  0
   -6.4986   -0.9132   18.0410 O   0  5  0  0  0  0
   -4.7430    2.6785   15.1040 C   0  0  0  0  0  0
   -7.7214    0.8310   18.5542 O   0  0  0  0  0  0
    0.8033    6.2330    9.8933 O   0  0  0  0  0  0
   -4.6922    4.5709   13.6615 O   0  0  0  0  0  0
   -6.4926    2.4519   16.7976 C   0  0  0  0  0  0
   -5.1196    0.5606   16.1970 C   0  0  0  0  0  0
   -5.8121    3.2428   15.8695 C   0  0  0  0  0  0
   -4.4338    1.3486   15.2678 C   0  0  0  0  0  0
   -1.2305    8.3010    9.2802 C   0  0  0  0  0  0
   -1.2956   10.5635    7.6151 C   0  0  0  0  0  0
    1.3831    3.7322   11.5021 C   0  0  0  0  0  0
   -0.1165    8.6443    8.5091 C   0  0  0  0  0  0
   -2.3775    9.1050    9.2066 C   0  0  0  0  0  0
   -0.1514    9.7723    7.6812 C   0  0  0  0  0  0
   -2.4101   10.2293    8.3796 C   0  0  0  0  0  0
   -1.2020   11.6382    6.7657 O   0  0  0  0  0  0
   -2.3456   12.4790    6.6650 C   0  0  0  0  0  0
   -2.4715    2.3544   14.3014 H   0  0  0  0  0  0
   -2.1155    7.0727   10.6102 H   0  0  0  0  0  0
  1  4  1  0  0  0
  1  5  2  0  0  0
  1  6  1  0  0  0
  2  3  2  0  0  0
  2  4  1  0  0  0
  2  7  1  0  0  0
  3  5  1  0  0  0
  5 23  1  0  0  0
  6 10  1  0  0  0
  6 15  2  0  0  0
  7  9  1  0  0  0
  7 30  1  0  0  0
  8 11  1  0  0  0
  8 12  1  0  0  0
  8 14  2  0  0  0
  9 13  1  0  0  0
  9 16  2  0  0  0
 10 21  1  0  0  0
 10 31  1  0  0  0
 11 17  2  0  0  0
 11 18  1  0  0  0
 13 19  2  0  0  0
 13 20  1  0  0  0
 17 19  1  0  0  0
 18 20  2  0  0  0
 21 24  2  0  0  0
 21 25  1  0  0  0
 22 26  2  0  0  0
 22 27  1  0  0  0
 22 28  1  0  0  0
 24 26  1  0  0  0
 25 27  2  0  0  0
 28 29  1  0  0  0
M  END
>  <$CLUSTER>
227

>  <CHROM.0>
171.87749437,172.34128515,81.24107942

>  <CHROM.1>
-2.81012206,5.11976254,12.39806438,-1.15177607,-0.38740774,2.51359160

>  <INDEX>
146043

>  <Name>
Asinex ASN 05317597

>  <RI>
-2.07807e+09

>  <Rbt.Current_Directory>
/aloy/home/acomajuncosa/PocketVec_v2/GitLab_repo

>  <Rbt.Executable>
rbdock ($Id: //depot/dev/client3/rdock/2021.1/src/exe/rbdock.cxx#4 $)

>  <Rbt.Library>
libRbt.so (2021.1, Build901 2021/07/19)

>  <Rbt.Parameter_File>
examples/2_pocketvec/rDock_results/dock.prm

>  <Rbt.Receptor>
examples/2_pocketvec/rDock_results/st_parameters.prm

>  <SCORE>
-12.3219

>  <SCORE.INTER>
-7.04072

>  <SCORE.INTER.CONST>
1

>  <SCORE.INTER.POLAR>
-0.977172

>  <SCORE.INTER.REPUL>
0.00898081

>  <SCORE.INTER.ROT>
5

>  <SCORE.INTER.VDW>
-14.1632

>  <SCORE.INTER.norm>
-0.242783

>  <SCORE.INTRA>
2.56706e-12

>  <SCORE.INTRA.DIHEDRAL>
-3.15303e-14

>  <SCORE.INTRA.DIHEDRAL.0>
2.41904

>  <SCORE.INTRA.POLAR>
0

>  <SCORE.INTRA.POLAR.0>
0

>  <SCORE.INTRA.REPUL>
0

>  <SCORE.INTRA.REPUL.0>
0

>  <SCORE.INTRA.VDW>
2.58282e-12

>  <SCORE.INTRA.VDW.0>
2.44342

>  <SCORE.INTRA.norm>
8.85192e-14

>  <SCORE.RESTR>
0

>  <SCORE.RESTR.CAVITY>
0

>  <SCORE.RESTR.norm>
0

>  <SCORE.SYSTEM>
-5.28123

>  <SCORE.SYSTEM.CONST>
0

>  <SCORE.SYSTEM.DIHEDRAL>
2.45833

>  <SCORE.SYSTEM.POLAR>
-1.79399

>  <SCORE.SYSTEM.VDW>
-0.410842

>  <SCORE.SYSTEM.norm>
-0.182111

>  <SCORE.heavy>
29

>  <SCORE.norm>
-0.424895

$$$$
Chem T&I AMSACS-11579
  rDOCK(R)          3D
libRbt.so/2021.1/901 2021/07/19
 21 22  0  0  0  0  0  0  0  0999 V2000
   -4.6425    4.6994    9.4498 S   0  0  0  0  0  0
   -4.7546   -0.0369   14.7189 N   0  0  0  0  0  0
   -4.5524    1.2798   14.9171 N   0  0  0  0  0  0
   -5.0155    1.7296   16.1210 C   0  0  0  0  0  0
   -5.5572    0.6340   16.7483 C   0  0  0  0  0  0
   -5.3688   -0.4249   15.8398 C   0  0  0  0  0  0
   -4.1690    6.2152   10.2622 C   0  0  0  0  0  0
   -5.7864    5.0177    8.6023 O   0  0  0  0  0  0
   -3.4355    4.1388    8.8462 O   0  0  0  0  0  0
   -5.1274    3.7778   10.7316 N   0  0  0  0  0  0
   -2.8504    6.3700   10.6881 C   0  0  0  0  0  0
   -5.1151    7.2148   10.4470 C   0  0  0  0  0  0
   -6.3207    0.5124   18.3173 Br  0  0  0  0  0  0
   -4.7354    8.3979   11.0808 C   0  0  0  0  0  0
   -2.4807    7.5565   11.3204 C   0  0  0  0  0  0
   -3.4212    8.5687   11.5179 C   0  0  0  0  0  0
   -3.8954    2.0697   13.8977 C   0  0  0  0  0  0
   -4.8587    2.5292   12.8175 C   0  0  0  0  0  0
   -4.1757    3.3465   11.7460 C   0  0  0  0  0  0
   -3.0140    9.8354   12.1970 C   0  0  0  0  0  0
   -5.5354    2.9388   10.3442 H   0  0  0  0  0  0
  1  7  1  0  0  0
  1  8  2  0  0  0
  1  9  2  0  0  0
  1 10  1  0  0  0
  2  3  1  0  0  0
  2  6  2  0  0  0
  3  4  1  0  0  0
  3 17  1  0  0  0
  4  5  2  0  0  0
  5  6  1  0  0  0
  5 13  1  0  0  0
  7 11  1  0  0  0
  7 12  2  0  0  0
 10 19  1  0  0  0
 10 21  1  0  0  0
 11 15  2  0  0  0
 12 14  1  0  0  0
 14 16  2  0  0  0
 15 16  1  0  0  0
 16 20  1  0  0  0
 17 18  1  0  0  0
 18 19  1  0  0  0
M  END
>  <$CLUSTER>
789

>  <CHROM.0>
0.04080599,170.81689618,73.91734494

>  <CHROM.1>
-4.81956294,3.50995949,13.37076845,0.46003707,-1.35435009,-1.96790217

>  <INDEX>
518299

>  <Name>
Chem T&I AMSACS-11579

>  <RI>
-2.07807e+09

>  <Rbt.Current_Directory>
/aloy/home/acomajuncosa/PocketVec_v2/GitLab_repo

>  <Rbt.Executable>
rbdock ($Id: //depot/dev/client3/rdock/2021.1/src/exe/rbdock.cxx#4 $)

>  <Rbt.Library>
libRbt.so (2021.1, Build901 2021/07/19)

>  <Rbt.Parameter_File>
examples/2_pocketvec/rDock_results/dock.prm

>  <Rbt.Receptor>
examples/2_pocketvec/rDock_results/st_parameters.prm

>  <SCORE>
-12.3503

>  <SCORE.INTER>
-6.74337

>  <SCORE.INTER.CONST>
1

>  <SCORE.INTER.POLAR>
-0.331909

>  <SCORE.INTER.REPUL>
0

>  <SCORE.INTER.ROT>
6

>  <SCORE.INTER.VDW>
-17.0149

>  <SCORE.INTER.norm>
-0.337169

>  <SCORE.INTRA>
-1.53655e-13

>  <SCORE.INTRA.DIHEDRAL>
-1.09246e-13

>  <SCORE.INTRA.DIHEDRAL.0>
3.73324

>  <SCORE.INTRA.POLAR>
0

>  <SCORE.INTRA.POLAR.0>
0

>  <SCORE.INTRA.REPUL>
0

>  <SCORE.INTRA.REPUL.0>
0

>  <SCORE.INTRA.VDW>
-9.90319e-14

>  <SCORE.INTRA.VDW.0>
-1.64753

>  <SCORE.INTRA.norm>
-7.68274e-15

>  <SCORE.RESTR>
0

>  <SCORE.RESTR.CAVITY>
0

>  <SCORE.RESTR.norm>
0

>  <SCORE.SYSTEM>
-5.60697

>  <SCORE.SYSTEM.CONST>
0

>  <SCORE.SYSTEM.DIHEDRAL>
1.3849

>  <SCORE.SYSTEM.POLAR>
-1.74603

>  <SCORE.SYSTEM.VDW>
-0.362907

>  <SCORE.SYSTEM.norm>
-0.280349

>  <SCORE.heavy>
20

>  <SCORE.norm>
-0.617517

$$$$
Bionet 8K-348S
  rDOCK(R)          3D
libRbt.so/2021.1/901 2021/07/19
 29 31  0  0  0  0  0  0  0  0999 V2000
   -3.1068    5.9160    8.3129 S   0  0  0  0  0  0
   -3.4527    5.7472    9.9908 N   0  0  0  0  0  0
   -4.8139    5.2782   10.3869 C   0  0  0  0  0  0
   -4.7339    4.3979   11.6246 C   0  0  0  0  0  0
   -4.7300    1.9350   12.2038 C   0  0  0  0  0  0
   -3.5553    4.7230    7.6186 O   0  0  0  0  0  0
   -1.7529    6.4027    8.1220 O   0  0  0  0  0  0
   -4.2189    7.2290    7.8554 C   0  0  0  0  0  0
   -4.7744    3.0587   11.3739 N   0  0  0  0  0  0
   -4.6230    2.0406   13.5938 C   0  0  0  0  0  0
   -4.7948    0.6572   11.6263 C   0  0  0  0  0  0
   -2.7714    6.6661   10.8773 C   0  0  0  0  0  0
   -4.7530   -0.4885   12.4216 C   0  0  0  0  0  0
   -4.5811    0.8896   14.3881 C   0  0  0  0  0  0
   -4.6462   -0.3728   13.8036 C   0  0  0  0  0  0
   -4.6400    4.8376   12.7726 O   0  0  0  0  0  0
   -4.4491    1.0220   16.0825 Cl  0  0  0  0  0  0
   -4.8328   -2.0212   11.6836 Cl  0  0  0  0  0  0
   -5.5227    6.9357    7.4293 C   0  0  0  0  0  0
   -3.7754    8.5617    7.8770 C   0  0  0  0  0  0
   -3.3589    7.8693   11.2798 C   0  0  0  0  0  0
   -1.4618    6.3668   11.2718 C   0  0  0  0  0  0
   -4.6367    9.5890    7.4889 C   0  0  0  0  0  0
   -0.7585    7.2513   12.0897 C   0  0  0  0  0  0
   -2.6516    8.7519   12.0979 C   0  0  0  0  0  0
   -6.3792    7.9687    7.0432 C   0  0  0  0  0  0
   -1.3547    8.4418   12.5046 C   0  0  0  0  0  0
   -5.9362    9.2922    7.0736 C   0  0  0  0  0  0
   -4.8518    2.8331   10.3929 H   0  0  0  0  0  0
  1  2  1  0  0  0
  1  6  2  0  0  0
  1  7  2  0  0  0
  1  8  1  0  0  0
  2  3  1  0  0  0
  2 12  1  0  0  0
  3  4  1  0  0  0
  4  9  1  0  0  0
  4 16  2  0  0  0
  5  9  1  0  0  0
  5 10  1  0  0  0
  5 11  2  0  0  0
  8 19  1  0  0  0
  8 20  2  0  0  0
  9 29  1  0  0  0
 10 14  2  0  0  0
 11 13  1  0  0  0
 12 21  1  0  0  0
 12 22  2  0  0  0
 13 15  2  0  0  0
 13 18  1  0  0  0
 14 15  1  0  0  0
 14 17  1  0  0  0
 19 26  2  0  0  0
 20 23  1  0  0  0
 21 25  2  0  0  0
 22 24  1  0  0  0
 23 28  2  0  0  0
 24 27  2  0  0  0
 25 27  1  0  0  0
 26 28  1  0  0  0
M  END
>  <$CLUSTER>
148

>  <CHROM.0>
-2.07314793,171.65556381,73.85366455

>  <CHROM.1>
-3.98523868,4.46294288,10.92430791,1.33423563,-1.15064842,-0.78048802

>  <INDEX>
106563

>  <Name>
Bionet 8K-348S

>  <RI>
-2.07807e+09

>  <Rbt.Current_Directory>
/aloy/home/acomajuncosa/PocketVec_v2/GitLab_repo

>  <Rbt.Executable>
rbdock ($Id: //depot/dev/client3/rdock/2021.1/src/exe/rbdock.cxx#4 $)

>  <Rbt.Library>
libRbt.so (2021.1, Build901 2021/07/19)

>  <Rbt.Parameter_File>
examples/2_pocketvec/rDock_results/dock.prm

>  <Rbt.Receptor>
examples/2_pocketvec/rDock_results/st_parameters.prm

>  <SCORE>
-9.84478

>  <SCORE.INTER>
-4.2397

>  <SCORE.INTER.CONST>
1

>  <SCORE.INTER.POLAR>
-0.651269

>  <SCORE.INTER.REPUL>
0.117109

>  <SCORE.INTER.ROT>
6

>  <SCORE.INTER.VDW>
-14.0109

>  <SCORE.INTER.norm>
-0.151418

>  <SCORE.INTRA>
-2.5091e-13

>  <SCORE.INTRA.DIHEDRAL>
-1.94511e-13

>  <SCORE.INTRA.DIHEDRAL.0>
4.36115

>  <SCORE.INTRA.POLAR>
0

>  <SCORE.INTRA.POLAR.0>
0

>  <SCORE.INTRA.REPUL>
0

>  <SCORE.INTRA.REPUL.0>
0

>  <SCORE.INTRA.VDW>
-1.53655e-13

>  <SCORE.INTRA.VDW.0>
-4.04314

>  <SCORE.INTRA.norm>
-8.96109e-15

>  <SCORE.RESTR>
0

>  <SCORE.RESTR.CAVITY>
0

>  <SCORE.RESTR.norm>
0

>  <SCORE.SYSTEM>
-5.60508

>  <SCORE.SYSTEM.CONST>
0

>  <SCORE.SYSTEM.DIHEDRAL>
1.31787

>  <SCORE.SYSTEM.POLAR>
-1.74551

>  <SCORE.SYSTEM.VDW>
-0.329273

>  <SCORE.SYSTEM.norm>
-0.200181

>  <SCORE.heavy>
28

>  <SCORE.norm>
-0.351599

$$$$
InterBioScreen STOCK5S-22526
  rDOCK(R)          3D
libRbt.so/2021.1/901 2021/07/19
 27 29  0  0  0  0  0  0  0  0999 V2000
   -3.6456    3.3398   12.5543 N   0  0  0  0  0  0
   -4.4557    2.2471   12.6520 C   0  0  0  0  0  0
   -4.5700   14.1651    9.5372 N   0  3  0  0  0  0
   -5.6826    2.4731   13.1292 N   0  0  0  0  0  0
   -4.4284    4.2689   13.0115 C   0  0  0  0  0  0
   -5.6717    3.8518   13.3673 O   0  0  0  0  0  0
   -4.6158   12.7442    9.8810 C   0  0  0  0  0  0
   -3.9774    0.9115   12.2391 C   0  0  0  0  0  0
   -4.3355    8.0207   12.0291 C   0  0  0  0  0  0
   -5.0042   14.5278    8.4303 O   0  5  0  0  0  0
   -4.0939   14.9449   10.3788 O   0  0  0  0  0  0
   -4.7463    8.6848   10.8802 N   0  0  0  0  0  0
   -3.8288    8.4982   13.0389 O   0  0  0  0  0  0
   -5.1269   11.8863    8.9844 C   0  0  0  0  0  0
   -4.0752   12.3945   11.2286 C   0  0  0  0  0  0
   -2.6736    0.7481   11.7468 C   0  0  0  0  0  0
   -4.8081   -0.2150   12.3319 C   0  0  0  0  0  0
   -4.6675   10.0721   10.6140 C   0  0  0  0  0  0
   -4.1632    5.7451   13.1459 C   0  0  0  0  0  0
   -4.5911    6.5375   11.9200 C   0  0  0  0  0  0
   -3.0491   -1.6227   11.4532 C   0  0  0  0  0  0
   -5.1504   10.5080    9.3714 C   0  0  0  0  0  0
   -4.1479   11.0176   11.5042 C   0  0  0  0  0  0
   -2.2146   -0.5117   11.3557 C   0  0  0  0  0  0
   -4.3452   -1.4748   11.9393 C   0  0  0  0  0  0
   -2.4732   -3.1514   10.9747 Cl  0  0  0  0  0  0
   -5.1472    8.1120   10.1518 H   0  0  0  0  0  0
  1  2  1  0  0  0
  1  5  2  0  0  0
  2  4  2  0  0  0
  2  8  1  0  0  0
  3  7  1  0  0  0
  3 10  1  0  0  0
  3 11  2  0  0  0
  4  6  1  0  0  0
  5  6  1  0  0  0
  5 19  1  0  0  0
  7 14  2  0  0  0
  7 15  1  0  0  0
  8 16  2  0  0  0
  8 17  1  0  0  0
  9 12  1  0  0  0
  9 13  2  0  0  0
  9 20  1  0  0  0
 12 18  1  0  0  0
 12 27  1  0  0  0
 14 22  1  0  0  0
 15 23  2  0  0  0
 16 24  1  0  0  0
 17 25  2  0  0  0
 18 22  2  0  0  0
 18 23  1  0  0  0
 19 20  1  0  0  0
 21 24  2  0  0  0
 21 25  1  0  0  0
 21 26  1  0  0  0
M  END
>  <$CLUSTER>
567

>  <CHROM.0>
-3.06671918,171.49506757,74.00667019

>  <CHROM.1>
-4.16538002,5.78616182,11.41513978,1.34627059,-1.17593535,2.80903190

>  <INDEX>
368855

>  <Name>
InterBioScreen STOCK5S-22526

>  <RI>
-2.07807e+09

>  <Rbt.Current_Directory>
/aloy/home/acomajuncosa/PocketVec_v2/GitLab_repo

>  <Rbt.Executable>
rbdock ($Id: //depot/dev/client3/rdock/2021.1/src/exe/rbdock.cxx#4 $)

>  <Rbt.Library>
libRbt.so (2021.1, Build901 2021/07/19)

>  <Rbt.Parameter_File>
examples/2_pocketvec/rDock_results/dock.prm

>  <Rbt.Receptor>
examples/2_pocketvec/rDock_results/st_parameters.prm

>  <SCORE>
-9.43057

>  <SCORE.INTER>
-3.829

>  <SCORE.INTER.CONST>
1

>  <SCORE.INTER.POLAR>
-0.0902826

>  <SCORE.INTER.REPUL>
0

>  <SCORE.INTER.ROT>
5

>  <SCORE.INTER.VDW>
-13.922

>  <SCORE.INTER.norm>
-0.147269

>  <SCORE.INTRA>
-1.69276e-12

>  <SCORE.INTRA.DIHEDRAL>
-7.22533e-13

>  <SCORE.INTRA.DIHEDRAL.0>
2.34692

>  <SCORE.INTRA.POLAR>
0

>  <SCORE.INTRA.POLAR.0>
0

>  <SCORE.INTRA.REPUL>
0

>  <SCORE.INTRA.REPUL.0>
0

>  <SCORE.INTRA.VDW>
-1.33149e-12

>  <SCORE.INTRA.VDW.0>
-0.525169

>  <SCORE.INTRA.norm>
-6.5106e-14

>  <SCORE.RESTR>
0

>  <SCORE.RESTR.CAVITY>
0

>  <SCORE.RESTR.norm>
0

>  <SCORE.SYSTEM>
-5.60157

>  <SCORE.SYSTEM.CONST>
0

>  <SCORE.SYSTEM.DIHEDRAL>
1.35887

>  <SCORE.SYSTEM.POLAR>
-1.74677

>  <SCORE.SYSTEM.VDW>
-0.341995

>  <SCORE.SYSTEM.norm>
-0.215445

>  <SCORE.heavy>
26

>  <SCORE.norm>
-0.362714

$$$$
Asinex ASN 05343028
  rDOCK(R)          3D
libRbt.so/2021.1/901 2021/07/19
 29 31  0  0  0  0  0  0  0  0999 V2000
   -3.7347   -3.5062   11.3962 S   0  0  0  0  0  0
   -4.2506    3.8057   12.9386 O   0  0  0  0  0  0
   -4.4026    3.1219   11.7597 C   0  0  0  0  0  0
   -4.3757    3.9180   10.7096 N   0  0  0  0  0  0
   -4.1306    5.0871   12.4963 C   0  0  0  0  0  0
   -4.1991    5.2006   11.1930 N   0  0  0  0  0  0
   -5.0167   -2.5422   12.0024 N   0  0  0  0  0  0
   -4.5652    1.6596   11.8376 C   0  0  0  0  0  0
   -5.1575    8.1426   11.8924 C   0  0  0  0  0  0
   -4.1474   -4.8954   11.4691 O   0  0  0  0  0  0
   -3.2064   -2.9581   10.1627 O   0  0  0  0  0  0
   -3.9107    6.3828   13.6391 S   0  0  0  0  0  0
   -5.3292    7.6101   10.6601 N   0  0  0  0  0  0
   -6.0368    8.7675   12.4756 O   0  0  0  0  0  0
   -4.5657    0.9995   13.0661 C   0  0  0  0  0  0
   -4.7229    0.9344   10.6567 C   0  0  0  0  0  0
   -3.8157    7.8117   12.5383 C   0  0  0  0  0  0
   -4.8792   -1.1123   11.9311 C   0  0  0  0  0  0
   -2.5172   -3.2609   12.6699 C   0  0  0  0  0  0
   -6.3943    7.6678    9.7467 C   0  0  0  0  0  0
   -4.7215   -0.3862   13.1156 C   0  0  0  0  0  0
   -4.8789   -0.4515   10.7007 C   0  0  0  0  0  0
   -7.5877    8.3343   10.0372 C   0  0  0  0  0  0
   -6.2605    7.0299    8.5047 C   0  0  0  0  0  0
   -8.6263    8.3612    9.1005 C   0  0  0  0  0  0
   -7.2982    7.0582    7.5717 C   0  0  0  0  0  0
   -8.4832    7.7246    7.8690 C   0  0  0  0  0  0
   -5.8438   -2.9659   12.3979 H   0  0  0  0  0  0
   -4.5412    7.0685   10.3353 H   0  0  0  0  0  0
  1  7  1  0  0  0
  1 10  2  0  0  0
  1 11  2  0  0  0
  1 19  1  0  0  0
  2  3  1  0  0  0
  2  5  1  0  0  0
  3  4  2  0  0  0
  3  8  1  0  0  0
  4  6  1  0  0  0
  5  6  2  0  0  0
  5 12  1  0  0  0
  7 18  1  0  0  0
  7 28  1  0  0  0
  8 15  2  0  0  0
  8 16  1  0  0  0
  9 13  1  0  0  0
  9 14  2  0  0  0
  9 17  1  0  0  0
 12 17  1  0  0  0
 13 20  1  0  0  0
 13 29  1  0  0  0
 15 21  1  0  0  0
 16 22  2  0  0  0
 18 21  2  0  0  0
 18 22  1  0  0  0
 20 23  2  0  0  0
 20 24  1  0  0  0
 23 25  1  0  0  0
 24 26  2  0  0  0
 25 27  2  0  0  0
 26 27  1  0  0  0
M  END
>  <$CLUSTER>
228

>  <CHROM.0>
38.14983364,172.65458033,73.52395696

>  <CHROM.1>
-4.92721643,3.07027279,11.33704222,1.20126399,0.96655731,-2.93426065

>  <INDEX>
146110

>  <Name>
Asinex ASN 05343028

>  <RI>
-2.07807e+09

>  <Rbt.Current_Directory>
/aloy/home/acomajuncosa/PocketVec_v2/GitLab_repo

>  <Rbt.Executable>
rbdock ($Id: //depot/dev/client3/rdock/2021.1/src/exe/rbdock.cxx#4 $)

>  <Rbt.Library>
libRbt.so (2021.1, Build901 2021/07/19)

>  <Rbt.Parameter_File>
examples/2_pocketvec/rDock_results/dock.prm

>  <Rbt.Receptor>
examples/2_pocketvec/rDock_results/st_parameters.prm

>  <SCORE>
10.6609

>  <SCORE.INTER>
15.6283

>  <SCORE.INTER.CONST>
1

>  <SCORE.INTER.POLAR>
0

>  <SCORE.INTER.REPUL>
0.014529

>  <SCORE.INTER.ROT>
7

>  <SCORE.INTER.VDW>
3.15566

>  <SCORE.INTER.norm>
0.578826

>  <SCORE.INTRA>
4.48397e-13

>  <SCORE.INTRA.DIHEDRAL>
7.40741e-13

>  <SCORE.INTRA.DIHEDRAL.0>
13.6796

>  <SCORE.INTRA.POLAR>
-1.55209e-13

>  <SCORE.INTRA.POLAR.0>
-0.369193

>  <SCORE.INTRA.REPUL>
0

>  <SCORE.INTRA.REPUL.0>
0

>  <SCORE.INTRA.VDW>
6.05738e-13

>  <SCORE.INTRA.VDW.0>
-3.14786

>  <SCORE.INTRA.norm>
1.66073e-14

>  <SCORE.RESTR>
0

>  <SCORE.RESTR.CAVITY>
0

>  <SCORE.RESTR.norm>
0

>  <SCORE.SYSTEM>
-4.96741

>  <SCORE.SYSTEM.CONST>
0

>  <SCORE.SYSTEM.DIHEDRAL>
2.97553

>  <SCORE.SYSTEM.POLAR>
-1.7428

>  <SCORE.SYSTEM.VDW>
-0.529674

>  <SCORE.SYSTEM.norm>
-0.183978

>  <SCORE.heavy>
27

>  <SCORE.norm>
0.394848

$$$$
Asinex ASN 03365236
  rDOCK(R)          3D
libRbt.so/2021.1/901 2021/07/19
 31 33  0  0  0  0  0  0  0  0999 V2000
   -3.5442    5.3173    8.7818 C   0  0  0  0  0  0
   -3.5614    5.0664    7.2924 C   0  0  0  0  0  0
   -2.3321    4.9054    6.6956 N   0  0  0  0  0  0
   -4.8588    4.7384   11.7900 C   0  0  0  0  0  0
   -2.3632    5.3614    9.3966 C   0  0  0  0  0  0
   -1.1386    4.9600    7.3668 C   0  0  0  0  0  0
   -1.1166    5.1806    8.6862 C   0  0  0  0  0  0
   -4.8778    5.7569   10.8340 N   0  0  0  0  0  0
   -4.9315    5.4865    9.3851 C   0  0  0  0  0  0
   -4.7757    3.4643   11.3283 N   0  0  0  0  0  0
    0.0871    4.7789    6.6521 C   0  0  0  0  0  0
    0.1094    5.2443    9.4123 C   0  0  0  0  0  0
    1.3091    5.0675    8.7184 C   0  0  0  0  0  0
    1.2963    4.8367    7.3412 C   0  0  0  0  0  0
   -4.9233    4.9397   13.4577 S   0  0  0  0  0  0
   -4.6114    5.0097    6.6582 O   0  0  0  0  0  0
   -4.7184    2.1250   11.6523 C   0  0  0  0  0  0
   -4.5992   -0.6172   12.3068 C   0  0  0  0  0  0
   -4.5396   -1.9269   12.5363 F   0  0  0  0  0  0
   -4.7427    1.7064   12.9841 C   0  0  0  0  0  0
   -4.6339    1.1403   10.6510 C   0  0  0  0  0  0
   -4.6845    0.3458   13.3095 C   0  0  0  0  0  0
   -4.5743   -0.2194   10.9727 C   0  0  0  0  0  0
   -4.8488    7.1876   11.1991 C   0  0  0  0  0  0
   -7.0409    7.0732   12.2502 O   0  0  0  0  0  0
    2.5839    4.6513    6.6035 C   0  0  0  0  0  0
    2.6083    5.1259    9.4550 C   0  0  0  0  0  0
   -6.2441    7.7896   11.2934 C   0  0  0  0  0  0
   -2.3079    4.7364    5.6996 H   0  0  0  0  0  0
   -4.7413    3.5219   10.3202 H   0  0  0  0  0  0
   -7.9066    7.4867   12.2748 H   0  0  0  0  0  0
  1  2  1  0  0  0
  1  5  2  0  0  0
  1  9  1  0  0  0
  2  3  1  0  0  0
  2 16  2  0  0  0
  3  6  1  0  0  0
  3 29  1  0  0  0
  4  8  1  0  0  0
  4 10  1  0  0  0
  4 15  2  0  0  0
  5  7  1  0  0  0
  6  7  2  0  0  0
  6 11  1  0  0  0
  7 12  1  0  0  0
  8  9  1  0  0  0
  8 24  1  0  0  0
 10 17  1  0  0  0
 10 30  1  0  0  0
 11 14  2  0  0  0
 12 13  2  0  0  0
 13 14  1  0  0  0
 13 27  1  0  0  0
 14 26  1  0  0  0
 17 20  2  0  0  0
 17 21  1  0  0  0
 18 19  1  0  0  0
 18 22  2  0  0  0
 18 23  1  0  0  0
 20 22  1  0  0  0
 21 23  2  0  0  0
 24 28  1  0  0  0
 25 28  1  0  0  0
 25 31  1  0  0  0
M  END
>  <$CLUSTER>
202

>  <CHROM.0>
-0.01327883,172.40709346,73.07667578

>  <CHROM.1>
-3.21017958,4.11120286,10.15540029,0.55749916,0.58594655,-0.31919492

>  <INDEX>
131464

>  <Name>
Asinex ASN 03365236

>  <RI>
-2.07807e+09

>  <Rbt.Current_Directory>
/aloy/home/acomajuncosa/PocketVec_v2/GitLab_repo

>  <Rbt.Executable>
rbdock ($Id: //depot/dev/client3/rdock/2021.1/src/exe/rbdock.cxx#4 $)

>  <Rbt.Library>
libRbt.so (2021.1, Build901 2021/07/19)

>  <Rbt.Parameter_File>
examples/2_pocketvec/rDock_results/dock.prm

>  <Rbt.Receptor>
examples/2_pocketvec/rDock_results/st_parameters.prm

>  <SCORE>
-15.3567

>  <SCORE.INTER>
-9.75356

>  <SCORE.INTER.CONST>
1

>  <SCORE.INTER.POLAR>
-0.786275

>  <SCORE.INTER.REPUL>
0.0210339

>  <SCORE.INTER.ROT>
5

>  <SCORE.INTER.VDW>
-17.5854

>  <SCORE.INTER.norm>
-0.348341

>  <SCORE.INTRA>
-2.57572e-13

>  <SCORE.INTRA.DIHEDRAL>
-2.39808e-13

>  <SCORE.INTRA.DIHEDRAL.0>
5.54131

>  <SCORE.INTRA.POLAR>
0

>  <SCORE.INTRA.POLAR.0>
0

>  <SCORE.INTRA.REPUL>
0

>  <SCORE.INTRA.REPUL.0>
0

>  <SCORE.INTRA.VDW>
-1.37668e-13

>  <SCORE.INTRA.VDW.0>
-2.32372

>  <SCORE.INTRA.norm>
-9.19899e-15

>  <SCORE.RESTR>
0

>  <SCORE.RESTR.CAVITY>
0

>  <SCORE.RESTR.norm>
0

>  <SCORE.SYSTEM>
-5.60312

>  <SCORE.SYSTEM.CONST>
0

>  <SCORE.SYSTEM.DIHEDRAL>
1.15711

>  <SCORE.SYSTEM.POLAR>
-1.7391

>  <SCORE.SYSTEM.VDW>
-0.268746

>  <SCORE.SYSTEM.norm>
-0.200111

>  <SCORE.heavy>
28

>  <SCORE.norm>
-0.548453

$$$$
Life Chemicals F0566-0293
  rDOCK(R)          3D
libRbt.so/2021.1/901 2021/07/19
 29 32  0  0  0  0  0  0  0  0999 V2000
   -5.1890    7.9263   12.1002 C   0  0  0  0  0  0
   -4.4758    0.7612   15.7917 S   0  0  0  0  0  0
   -5.2330    6.7447   12.6270 N   0  0  0  0  0  0
   -6.1885    8.5096   11.3343 N   0  0  0  0  0  0
   -3.7990    9.0567   12.2624 S   0  0  0  0  0  0
   -4.6307   10.2667   11.2699 C   0  0  0  0  0  0
   -5.8817    9.8049   10.8655 C   0  0  0  0  0  0
   -4.0903    6.2649   13.4150 C   0  0  0  0  0  0
   -5.7579    0.8606   16.8633 N   0  0  0  0  0  0
   -4.4146    2.3791   15.0953 C   0  0  0  0  0  0
   -4.1483   11.5210   10.9098 C   0  0  0  0  0  0
   -4.8497   -0.1782   14.7477 O   0  0  0  0  0  0
   -3.2690    0.5411   16.5682 O   0  0  0  0  0  0
   -6.6777   10.6310   10.0669 C   0  0  0  0  0  0
   -4.2885    4.9230   13.9395 C   0  0  0  0  0  0
   -3.1144    6.9770   13.5686 O   0  0  0  0  0  0
   -5.1510    2.6773   13.9499 C   0  0  0  0  0  0
   -3.5955    3.3495   15.6692 C   0  0  0  0  0  0
   -5.0739    3.9481   13.3756 C   0  0  0  0  0  0
   -3.5138    4.6213   15.0977 C   0  0  0  0  0  0
   -4.9496   12.3396   10.1153 C   0  0  0  0  0  0
   -7.4440    7.8401   11.0152 C   0  0  0  0  0  0
   -6.2086   11.8964    9.6950 C   0  0  0  0  0  0
   -4.4429   13.5326    9.7979 F   0  0  0  0  0  0
   -5.5852    1.6968   18.0804 C   0  0  0  0  0  0
   -7.1285    0.9930   16.3032 C   0  0  0  0  0  0
   -7.3436    7.1169    9.6804 C   0  0  0  0  0  0
   -7.9543    1.3753   17.5717 C   0  0  0  0  0  0
   -6.9758    1.4641   18.7243 C   0  0  0  0  0  0
  1  3  2  0  0  0
  1  4  1  0  0  0
  1  5  1  0  0  0
  2  9  1  0  0  0
  2 10  1  0  0  0
  2 12  2  0  0  0
  2 13  2  0  0  0
  3  8  1  0  0  0
  4  7  1  0  0  0
  4 22  1  0  0  0
  5  6  1  0  0  0
  6  7  2  0  0  0
  6 11  1  0  0  0
  7 14  1  0  0  0
  8 15  1  0  0  0
  8 16  2  0  0  0
  9 25  1  0  0  0
  9 26  1  0  0  0
 10 17  2  0  0  0
 10 18  1  0  0  0
 11 21  2  0  0  0
 14 23  2  0  0  0
 15 19  2  0  0  0
 15 20  1  0  0  0
 17 19  1  0  0  0
 18 20  2  0  0  0
 21 23  1  0  0  0
 21 24  1  0  0  0
 22 27  1  0  0  0
 25 29  1  0  0  0
 26 28  1  0  0  0
 28 29  1  0  0  0
M  END
>  <$CLUSTER>
458

>  <CHROM.0>
-0.75289191,-179.23425701,74.02176279

>  <CHROM.1>
-5.12502485,5.74437619,13.52927230,1.56226361,-0.26925026,-0.54808501

>  <INDEX>
274605

>  <Name>
Life Chemicals F0566-0293

>  <RI>
-2.07807e+09

>  <Rbt.Current_Directory>
/aloy/home/acomajuncosa/PocketVec_v2/GitLab_repo

>  <Rbt.Executable>
rbdock ($Id: //depot/dev/client3/rdock/2021.1/src/exe/rbdock.cxx#4 $)

>  <Rbt.Library>
libRbt.so (2021.1, Build901 2021/07/19)

>  <Rbt.Parameter_File>
examples/2_pocketvec/rDock_results/dock.prm

>  <Rbt.Receptor>
examples/2_pocketvec/rDock_results/st_parameters.prm

>  <SCORE>
-10.6051

>  <SCORE.INTER>
-5.28307

>  <SCORE.INTER.CONST>
1

>  <SCORE.INTER.POLAR>
-0.660237

>  <SCORE.INTER.REPUL>
0.60125

>  <SCORE.INTER.ROT>
5

>  <SCORE.INTER.VDW>
-16.4445

>  <SCORE.INTER.norm>
-0.182175

>  <SCORE.INTRA>
-3.13616e-12

>  <SCORE.INTRA.DIHEDRAL>
1.7133e-12

>  <SCORE.INTRA.DIHEDRAL.0>
6.33345

>  <SCORE.INTRA.POLAR>
0

>  <SCORE.INTRA.POLAR.0>
0

>  <SCORE.INTRA.REPUL>
0

>  <SCORE.INTRA.REPUL.0>
0

>  <SCORE.INTRA.VDW>
-3.99281e-12

>  <SCORE.INTRA.VDW.0>
0.407093

>  <SCORE.INTRA.norm>
-1.08143e-13

>  <SCORE.RESTR>
0

>  <SCORE.RESTR.CAVITY>
0

>  <SCORE.RESTR.norm>
0

>  <SCORE.SYSTEM>
-5.32202

>  <SCORE.SYSTEM.CONST>
0

>  <SCORE.SYSTEM.DIHEDRAL>
1.00035

>  <SCORE.SYSTEM.POLAR>
-1.74689

>  <SCORE.SYSTEM.VDW>
0.117233

>  <SCORE.SYSTEM.norm>
-0.183518

>  <SCORE.heavy>
29

>  <SCORE.norm>
-0.365693

$$$$
EMC Microcollections 001A3586
  rDOCK(R)          3D
libRbt.so/2021.1/901 2021/07/19
 32 35  0  0  0  0  0  0  0  0999 V2000
   -5.7176    2.8216   14.8285 N   0  0  0  0  0  0
   -5.9800    1.3799   16.5181 C   0  0  0  0  0  0
   -5.0752    1.6747   14.4555 C   0  0  0  0  0  0
   -6.2741    2.6664   16.0754 C   0  0  0  0  0  0
   -4.3253    1.3477   13.2499 C   0  0  0  0  0  0
   -3.7435    2.3473   12.4937 N   0  0  0  0  0  0
   -5.2190    0.7655   15.4768 C   0  0  0  0  0  0
   -3.1314    1.8130   11.4609 C   0  0  0  0  0  0
   -3.2114    0.1060   11.3294 S   0  0  0  0  0  0
   -6.3950    0.8241   17.8032 C   0  0  0  0  0  0
   -4.1417    0.0631   12.7714 C   0  0  0  0  0  0
   -2.4026    2.6380   10.4478 C   0  0  0  0  0  0
   -5.8065    4.0286   13.9860 C   0  0  0  0  0  0
   -1.7426    4.8734    9.7194 N   0  0  0  0  0  0
   -2.3705    4.0278   10.5740 C   0  0  0  0  0  0
   -7.0537    1.4615   18.6230 O   0  0  0  0  0  0
   -1.7239    2.1063    9.3443 C   0  0  0  0  0  0
   -5.9963   -0.4737   18.0398 N   0  0  0  0  0  0
   -1.1062    4.3069    8.6743 C   0  0  0  0  0  0
   -4.6747    5.0083   14.2475 C   0  0  0  0  0  0
   -7.0323    3.7761   16.7106 C   0  0  0  0  0  0
   -2.5865    6.8037   14.7495 C   0  0  0  0  0  0
   -1.0683    2.9442    8.4442 C   0  0  0  0  0  0
   -3.5570    5.0380   13.4095 C   0  0  0  0  0  0
   -4.7301    5.8628   15.3567 C   0  0  0  0  0  0
   -3.6903    6.7639   15.6011 C   0  0  0  0  0  0
   -2.5175    5.9395   13.6559 C   0  0  0  0  0  0
   -1.5000    7.6371   14.8902 O   0  0  0  0  0  0
   -0.3867    5.2645    7.6967 C   0  0  0  0  0  0
   -1.5162    8.5355   15.9934 C   0  0  0  0  0  0
   -6.2447   -0.9285   18.9072 H   0  0  0  0  0  0
   -5.4555   -0.9703   17.3460 H   0  0  0  0  0  0
  1  3  1  0  0  0
  1  4  1  0  0  0
  1 13  1  0  0  0
  2  4  2  0  0  0
  2  7  1  0  0  0
  2 10  1  0  0  0
  3  5  1  0  0  0
  3  7  2  0  0  0
  4 21  1  0  0  0
  5  6  1  0  0  0
  5 11  2  0  0  0
  6  8  2  0  0  0
  8  9  1  0  0  0
  8 12  1  0  0  0
  9 11  1  0  0  0
 10 16  2  0  0  0
 10 18  1  0  0  0
 12 15  2  0  0  0
 12 17  1  0  0  0
 13 20  1  0  0  0
 14 15  1  0  0  0
 14 19  2  0  0  0
 17 23  2  0  0  0
 18 31  1  0  0  0
 18 32  1  0  0  0
 19 23  1  0  0  0
 19 29  1  0  0  0
 20 24  1  0  0  0
 20 25  2  0  0  0
 22 26  2  0  0  0
 22 27  1  0  0  0
 22 28  1  0  0  0
 24 27  2  0  0  0
 25 26  1  0  0  0
 28 30  1  0  0  0
M  END
>  <$CLUSTER>
345

>  <CHROM.0>
2.29667297,170.72282884,167.98139144

>  <CHROM.1>
-3.79908307,3.29736823,13.51731762,2.86157154,0.99715287,0.61150692

>  <INDEX>
215862

>  <Name>
EMC Microcollections 001A3586

>  <RI>
-2.07807e+09

>  <Rbt.Current_Directory>
/aloy/home/acomajuncosa/PocketVec_v2/GitLab_repo

>  <Rbt.Executable>
rbdock ($Id: //depot/dev/client3/rdock/2021.1/src/exe/rbdock.cxx#4 $)

>  <Rbt.Library>
libRbt.so (2021.1, Build901 2021/07/19)

>  <Rbt.Parameter_File>
examples/2_pocketvec/rDock_results/dock.prm

>  <Rbt.Receptor>
examples/2_pocketvec/rDock_results/st_parameters.prm

>  <SCORE>
-15.1075

>  <SCORE.INTER>
-12.6382

>  <SCORE.INTER.CONST>
1

>  <SCORE.INTER.POLAR>
-0.310311

>  <SCORE.INTER.REPUL>
0

>  <SCORE.INTER.ROT>
6

>  <SCORE.INTER.VDW>
-22.9832

>  <SCORE.INTER.norm>
-0.421274

>  <SCORE.INTRA>
9.20375e-14

>  <SCORE.INTRA.DIHEDRAL>
1.56319e-12

>  <SCORE.INTRA.DIHEDRAL.0>
5.11489

>  <SCORE.INTRA.POLAR>
0

>  <SCORE.INTRA.POLAR.0>
0

>  <SCORE.INTRA.REPUL>
0

>  <SCORE.INTRA.REPUL.0>
0

>  <SCORE.INTRA.VDW>
-6.8956e-13

>  <SCORE.INTRA.VDW.0>
-0.808855

>  <SCORE.INTRA.norm>
3.06792e-15

>  <SCORE.RESTR>
0

>  <SCORE.RESTR.CAVITY>
0

>  <SCORE.RESTR.norm>
0

>  <SCORE.SYSTEM>
-2.46932

>  <SCORE.SYSTEM.CONST>
0

>  <SCORE.SYSTEM.DIHEDRAL>
1.17365

>  <SCORE.SYSTEM.POLAR>
-0.994987

>  <SCORE.SYSTEM.REPUL>
5.17503e-05

>  <SCORE.SYSTEM.VDW>
0.326556

>  <SCORE.SYSTEM.norm>
-0.0823105

>  <SCORE.heavy>
30

>  <SCORE.norm>
-0.503584

$$$$
Chem T&I AMSACS-01505
  rDOCK(R)          3D
libRbt.so/2021.1/901 2021/07/19
 26 28  0  0  0  0  0  0  0  0999 V2000
   -6.8409    6.2659    8.1418 S   0  0  0  0  0  0
   -6.2784    6.4170    9.7348 N   0  0  0  0  0  0
   -5.3276    5.5514   10.2964 C   0  0  0  0  0  0
   -4.9745    5.6588   11.5836 N   0  0  0  0  0  0
   -4.0657    4.6849   11.7481 N   0  0  0  0  0  0
   -4.6307    4.5016    9.6517 C   0  0  0  0  0  0
   -7.9590    7.6445    8.0834 C   0  0  0  0  0  0
   -7.4972    8.8870    7.6491 C   0  0  0  0  0  0
   -3.8223    3.9617   10.6211 C   0  0  0  0  0  0
   -8.3869    9.9588    7.5765 C   0  0  0  0  0  0
   -5.7588    6.5462    7.2182 O   0  0  0  0  0  0
   -7.6326    5.0571    8.0247 O   0  0  0  0  0  0
   -9.7263    9.7829    7.9254 C   0  0  0  0  0  0
   -9.2998    7.4553    8.4232 C   0  0  0  0  0  0
   -3.4467    4.4922   13.0464 C   0  0  0  0  0  0
  -10.1820    8.5338    8.3470 C   0  0  0  0  0  0
   -8.0325   11.1828    7.1830 F   0  0  0  0  0  0
   -4.3049    3.6484   13.9725 C   0  0  0  0  0  0
   -5.9304    2.0885   15.6304 C   0  0  0  0  0  0
  -10.5101   10.8581    7.8278 F   0  0  0  0  0  0
   -6.9096    1.1322   16.6432 Cl  0  0  0  0  0  0
   -6.1104    3.4697   15.5776 C   0  0  0  0  0  0
   -4.9453    1.4842   14.8506 C   0  0  0  0  0  0
   -5.3025    4.2483   14.7465 C   0  0  0  0  0  0
   -4.1365    2.2616   14.0199 C   0  0  0  0  0  0
   -6.6452    7.1655   10.3061 H   0  0  0  0  0  0
  1  2  1  0  0  0
  1  7  1  0  0  0
  1 11  2  0  0  0
  1 12  2  0  0  0
  2  3  1  0  0  0
  2 26  1  0  0  0
  3  4  2  0  0  0
  3  6  1  0  0  0
  4  5  1  0  0  0
  5  9  1  0  0  0
  5 15  1  0  0  0
  6  9  2  0  0  0
  7  8  1  0  0  0
  7 14  2  0  0  0
  8 10  2  0  0  0
 10 13  1  0  0  0
 10 17  1  0  0  0
 13 16  2  0  0  0
 13 20  1  0  0  0
 14 16  1  0  0  0
 15 18  1  0  0  0
 18 24  2  0  0  0
 18 25  1  0  0  0
 19 21  1  0  0  0
 19 22  2  0  0  0
 19 23  1  0  0  0
 22 24  1  0  0  0
 23 25  2  0  0  0
M  END
>  <$CLUSTER>
175

>  <CHROM.0>
4.02519316,171.13181848,75.34272548

>  <CHROM.1>
-6.58834760,5.72749805,10.81730635,-1.91061757,-0.46892306,2.14996098

>  <INDEX>
513086

>  <Name>
Chem T&I AMSACS-01505

>  <RI>
-2.07807e+09

>  <Rbt.Current_Directory>
/aloy/home/acomajuncosa/PocketVec_v2/GitLab_repo

>  <Rbt.Executable>
rbdock ($Id: //depot/dev/client3/rdock/2021.1/src/exe/rbdock.cxx#4 $)

>  <Rbt.Library>
libRbt.so (2021.1, Build901 2021/07/19)

>  <Rbt.Parameter_File>
examples/2_pocketvec/rDock_results/dock.prm

>  <Rbt.Receptor>
examples/2_pocketvec/rDock_results/st_parameters.prm

>  <SCORE>
-15.6382

>  <SCORE.INTER>
-10.0506

>  <SCORE.INTER.CONST>
1

>  <SCORE.INTER.POLAR>
-0.103752

>  <SCORE.INTER.REPUL>
0

>  <SCORE.INTER.ROT>
5

>  <SCORE.INTER.VDW>
-20.0978

>  <SCORE.INTER.norm>
-0.402024

>  <SCORE.INTRA>
-2.67342e-13

>  <SCORE.INTRA.DIHEDRAL>
-3.65041e-13

>  <SCORE.INTRA.DIHEDRAL.0>
6.15941

>  <SCORE.INTRA.POLAR>
0

>  <SCORE.INTRA.POLAR.0>
0

>  <SCORE.INTRA.REPUL>
0

>  <SCORE.INTRA.REPUL.0>
0

>  <SCORE.INTRA.VDW>
-8.4821e-14

>  <SCORE.INTRA.VDW.0>
-2.68291

>  <SCORE.INTRA.norm>
-1.06937e-14

>  <SCORE.RESTR>
0

>  <SCORE.RESTR.CAVITY>
0

>  <SCORE.RESTR.norm>
0

>  <SCORE.SYSTEM>
-5.58763

>  <SCORE.SYSTEM.CONST>
0

>  <SCORE.SYSTEM.DIHEDRAL>
1.55992

>  <SCORE.SYSTEM.POLAR>
-1.75764

>  <SCORE.SYSTEM.VDW>
-0.391598

>  <SCORE.SYSTEM.norm>
-0.223505

>  <SCORE.heavy>
25

>  <SCORE.norm>
-0.625529

$$$$
Chem T&I ARAK0118211
  rDOCK(R)          3D
libRbt.so/2021.1/901 2021/07/19
 26 28  0  0  0  0  0  0  0  0999 V2000
   -2.7611    3.0835   10.0051 S   0  0  0  0  0  0
   -1.9362    3.5150    8.6142 N   0  0  0  0  0  0
   -2.3119    4.3510   11.1428 C   0  0  0  0  0  0
   -2.2038    1.8258   10.4721 O   0  0  0  0  0  0
   -4.1819    3.1887    9.7241 O   0  0  0  0  0  0
   -1.2984    7.3279   13.9360 N   0  0  0  0  0  0
   -2.3844    4.7329    7.8878 C   0  0  0  0  0  0
   -0.4540    3.3999    8.6161 C   0  0  0  0  0  0
   -0.5143    8.2673   13.4982 C   0  0  0  0  0  0
   -1.1814    4.1975   11.9461 C   0  0  0  0  0  0
   -3.1083    5.4898   11.2686 C   0  0  0  0  0  0
   -1.6299    6.3389   12.9938 C   0  0  0  0  0  0
   -0.0816    9.3849   14.3983 C   0  0  0  0  0  0
    0.7746   11.4936   15.9840 C   0  0  0  0  0  0
   -2.7700    6.4780   12.1962 C   0  0  0  0  0  0
   -0.8440    5.1874   12.8721 C   0  0  0  0  0  0
   -1.8218    4.8108    6.4716 C   0  0  0  0  0  0
    0.1416    3.4559    7.2140 C   0  0  0  0  0  0
   -0.4978    9.4545   15.7134 C   0  0  0  0  0  0
    0.7627   10.3548   13.8502 C   0  0  0  0  0  0
   -0.0684   10.5157   16.5144 C   0  0  0  0  0  0
    1.1901   11.4134   14.6537 C   0  0  0  0  0  0
   -0.2947    4.7119    6.4570 C   0  0  0  0  0  0
    1.1300   12.4894   16.8729 O   0  0  0  0  0  0
    1.9891   13.5135   16.3837 C   0  0  0  0  0  0
    0.2426    4.7074    5.0278 C   0  0  0  0  0  0
  1  2  1  0  0  0
  1  3  1  0  0  0
  1  4  2  0  0  0
  1  5  2  0  0  0
  2  7  1  0  0  0
  2  8  1  0  0  0
  3 10  1  0  0  0
  3 11  2  0  0  0
  6  9  2  0  0  0
  6 12  1  0  0  0
  7 17  1  0  0  0
  8 18  1  0  0  0
  9 13  1  0  0  0
 10 16  2  0  0  0
 11 15  1  0  0  0
 12 15  2  0  0  0
 12 16  1  0  0  0
 13 19  2  0  0  0
 13 20  1  0  0  0
 14 21  2  0  0  0
 14 22  1  0  0  0
 14 24  1  0  0  0
 17 23  1  0  0  0
 18 23  1  0  0  0
 19 21  1  0  0  0
 20 22  2  0  0  0
 23 26  1  0  0  0
 24 25  1  0  0  0
M  END
>  <$CLUSTER>
642

>  <CHROM.0>
2.66944133,171.56636944,74.88188323

>  <CHROM.1>
-1.02595312,6.45476483,11.56824327,1.93933003,-0.90641082,-2.07213265

>  <INDEX>
536545

>  <Name>
Chem T&I ARAK0118211

>  <RI>
-2.07807e+09

>  <Rbt.Current_Directory>
/aloy/home/acomajuncosa/PocketVec_v2/GitLab_repo

>  <Rbt.Executable>
rbdock ($Id: //depot/dev/client3/rdock/2021.1/src/exe/rbdock.cxx#4 $)

>  <Rbt.Library>
libRbt.so (2021.1, Build901 2021/07/19)

>  <Rbt.Parameter_File>
examples/2_pocketvec/rDock_results/dock.prm

>  <Rbt.Receptor>
examples/2_pocketvec/rDock_results/st_parameters.prm

>  <SCORE>
-8.8731

>  <SCORE.INTER>
-3.28001

>  <SCORE.INTER.CONST>
1

>  <SCORE.INTER.POLAR>
-0.611554

>  <SCORE.INTER.REPUL>
0

>  <SCORE.INTER.ROT>
5

>  <SCORE.INTER.VDW>
-11.6007

>  <SCORE.INTER.norm>
-0.126154

>  <SCORE.INTRA>
-1.72906e-12

>  <SCORE.INTRA.DIHEDRAL>
2.60236e-13

>  <SCORE.INTRA.DIHEDRAL.0>
7.82236

>  <SCORE.INTRA.POLAR>
0

>  <SCORE.INTRA.POLAR.0>
0

>  <SCORE.INTRA.REPUL>
0

>  <SCORE.INTRA.REPUL.0>
0

>  <SCORE.INTRA.VDW>
-1.85918e-12

>  <SCORE.INTRA.VDW.0>
0.367112

>  <SCORE.INTRA.norm>
-6.65024e-14

>  <SCORE.RESTR>
0

>  <SCORE.RESTR.CAVITY>
0

>  <SCORE.RESTR.norm>
0

>  <SCORE.SYSTEM>
-5.5931

>  <SCORE.SYSTEM.CONST>
0

>  <SCORE.SYSTEM.DIHEDRAL>
1.45231

>  <SCORE.SYSTEM.POLAR>
-1.75391

>  <SCORE.SYSTEM.VDW>
-0.355947

>  <SCORE.SYSTEM.norm>
-0.215119

>  <SCORE.heavy>
26

>  <SCORE.norm>
-0.341273

$$$$
Chembridge 7634772
  rDOCK(R)          3D
libRbt.so/2021.1/901 2021/07/19
 30 34  0  0  0  0  0  0  0  0999 V2000
   -3.6911    1.8225   12.6287 C   0  0  0  0  0  0
   -3.8725    0.5228   13.0962 N   0  0  0  0  0  0
   -4.1120    0.6878   14.4517 C   0  0  0  0  0  0
   -3.8291    2.6716   13.6301 N   0  0  0  0  0  0
   -2.1251    2.5863   10.9305 N   0  0  0  0  0  0
   -4.0936    1.9621   14.7663 N   0  0  0  0  0  0
   -0.0262    2.3193   10.2389 N   0  0  0  0  0  0
   -1.1929    1.7349   10.3952 C   0  0  0  0  0  0
   -3.5158    2.2458   11.2096 C   0  0  0  0  0  0
   -1.5190    3.8070   11.1152 C   0  0  0  0  0  0
   -4.2221   -0.6083   15.6048 S   0  0  0  0  0  0
   -0.2093    3.6089   10.6811 C   0  0  0  0  0  0
   -3.8255   -0.6808   12.3451 C   0  0  0  0  0  0
   -5.9182    0.9195   17.1822 C   0  0  0  0  0  0
   -4.5254    0.2960   17.1383 C   0  0  0  0  0  0
   -6.1220    2.2171   16.7224 C   0  0  0  0  0  0
   -5.0906    2.9428   16.2637 F   0  0  0  0  0  0
   -1.9727    5.0323   11.6172 C   0  0  0  0  0  0
   -7.0119    0.1828   17.6458 C   0  0  0  0  0  0
    0.7058    4.6736   10.7421 C   0  0  0  0  0  0
   -2.8132   -0.8793   11.3990 C   0  0  0  0  0  0
   -4.7936   -1.6736   12.5423 C   0  0  0  0  0  0
   -7.3877    2.7959   16.7374 C   0  0  0  0  0  0
   -1.0474    6.0799   11.6703 C   0  0  0  0  0  0
   -8.2856    0.7557   17.6638 C   0  0  0  0  0  0
    0.2694    5.9061   11.2421 C   0  0  0  0  0  0
   -8.4748    2.0617   17.2102 C   0  0  0  0  0  0
   -4.7445   -2.8544   11.7978 C   0  0  0  0  0  0
   -2.7700   -2.0644   10.6609 C   0  0  0  0  0  0
   -3.7339   -3.0513   10.8595 C   0  0  0  0  0  0
  1  2  1  0  0  0
  1  4  2  0  0  0
  1  9  1  0  0  0
  2  3  1  0  0  0
  2 13  1  0  0  0
  3  6  2  0  0  0
  3 11  1  0  0  0
  4  6  1  0  0  0
  5  8  1  0  0  0
  5  9  1  0  0  0
  5 10  1  0  0  0
  7  8  2  0  0  0
  7 12  1  0  0  0
 10 12  2  0  0  0
 10 18  1  0  0  0
 11 15  1  0  0  0
 12 20  1  0  0  0
 13 21  1  0  0  0
 13 22  2  0  0  0
 14 15  1  0  0  0
 14 16  2  0  0  0
 14 19  1  0  0  0
 16 17  1  0  0  0
 16 23  1  0  0  0
 18 24  2  0  0  0
 19 25  2  0  0  0
 20 26  2  0  0  0
 21 29  2  0  0  0
 22 28  1  0  0  0
 23 27  2  0  0  0
 24 26  1  0  0  0
 25 27  1  0  0  0
 28 30  2  0  0  0
 29 30  1  0  0  0
M  END
>  <$CLUSTER>
126

>  <CHROM.0>
2.02694532,172.24263125,75.02474478

>  <CHROM.1>
-3.70301009,1.45652817,13.47569996,-0.01471011,-0.85854715,-2.73566218

>  <INDEX>
81402

>  <Name>
Chembridge 7634772

>  <RI>
-2.07807e+09

>  <Rbt.Current_Directory>
/aloy/home/acomajuncosa/PocketVec_v2/GitLab_repo

>  <Rbt.Executable>
rbdock ($Id: //depot/dev/client3/rdock/2021.1/src/exe/rbdock.cxx#4 $)

>  <Rbt.Library>
libRbt.so (2021.1, Build901 2021/07/19)

>  <Rbt.Parameter_File>
examples/2_pocketvec/rDock_results/dock.prm

>  <Rbt.Receptor>
examples/2_pocketvec/rDock_results/st_parameters.prm

>  <SCORE>
41.3403

>  <SCORE.INTER>
46.9332

>  <SCORE.INTER.CONST>
1

>  <SCORE.INTER.POLAR>
0

>  <SCORE.INTER.REPUL>
0

>  <SCORE.INTER.ROT>
6

>  <SCORE.INTER.VDW>
35.5332

>  <SCORE.INTER.norm>
1.56444

>  <SCORE.INTRA>
4.52172e-12

>  <SCORE.INTRA.DIHEDRAL>
-1.09779e-12

>  <SCORE.INTRA.DIHEDRAL.0>
10.8598

>  <SCORE.INTRA.POLAR>
0

>  <SCORE.INTRA.POLAR.0>
0

>  <SCORE.INTRA.REPUL>
0

>  <SCORE.INTRA.REPUL.0>
0

>  <SCORE.INTRA.VDW>
5.07061e-12

>  <SCORE.INTRA.VDW.0>
4.71783

>  <SCORE.INTRA.norm>
1.50724e-13

>  <SCORE.RESTR>
0

>  <SCORE.RESTR.CAVITY>
0

>  <SCORE.RESTR.norm>
0

>  <SCORE.SYSTEM>
-5.59295

>  <SCORE.SYSTEM.CONST>
0

>  <SCORE.SYSTEM.DIHEDRAL>
1.41617

>  <SCORE.SYSTEM.POLAR>
-1.75507

>  <SCORE.SYSTEM.VDW>
-0.333788

>  <SCORE.SYSTEM.norm>
-0.186432

>  <SCORE.heavy>
30

>  <SCORE.norm>
1.37801

$$$$
Chem T&I IVK/0000805
  rDOCK(R)          3D
libRbt.so/2021.1/901 2021/07/19
 26 28  0  0  0  0  0  0  0  0999 V2000
    0.1448    4.3772    9.2914 S   0  0  0  0  0  0
   -0.9632    3.4191   10.1018 N   0  0  0  0  0  0
    1.1014    5.0770   10.6015 C   0  0  0  0  0  0
   -2.6103    1.9427   12.0715 N   0  3  0  0  0  0
    0.7045    6.2869   11.1791 C   0  0  0  0  0  0
   -0.5947    5.4446    8.6383 O   0  0  0  0  0  0
    0.9953    3.4993    8.5080 O   0  0  0  0  0  0
   -0.4594    2.1966   10.7836 C   0  0  0  0  0  0
   -2.0134    4.0962   10.9085 C   0  0  0  0  0  0
    1.4781    6.8521   12.1946 C   0  0  0  0  0  0
    2.2713    4.4389   11.0233 C   0  0  0  0  0  0
    2.6429    6.2139   12.6229 C   0  0  0  0  0  0
    3.0397    5.0095   12.0391 C   0  0  0  0  0  0
   -3.1580    3.1553   11.3481 C   0  0  0  0  0  0
   -1.5812    1.2261   11.2220 C   0  0  0  0  0  0
   -3.6967    1.0212   12.5399 C   0  0  0  0  0  0
   -4.5043    1.6203   13.6812 C   0  0  0  0  0  0
   -5.9437    2.7874   15.7742 C   0  0  0  0  0  0
   -4.0977    1.4326   15.0041 C   0  0  0  0  0  0
   -5.6206    2.4187   13.4085 C   0  0  0  0  0  0
   -4.8216    2.0086   16.0487 C   0  0  0  0  0  0
   -6.3417    2.9936   14.4552 C   0  0  0  0  0  0
    1.0613    8.1408   12.8233 C   0  0  0  0  0  0
    3.4665    6.8239   13.7118 C   0  0  0  0  0  0
   -6.7218    3.4014   16.8919 C   0  0  0  0  0  0
   -2.1431    2.2717   12.9046 H   0  0  0  0  0  0
  1  2  1  0  0  0
  1  3  1  0  0  0
  1  6  2  0  0  0
  1  7  2  0  0  0
  2  8  1  0  0  0
  2  9  1  0  0  0
  3  5  2  0  0  0
  3 11  1  0  0  0
  4 14  1  0  0  0
  4 15  1  0  0  0
  4 16  1  0  0  0
  4 26  1  0  0  0
  5 10  1  0  0  0
  8 15  1  0  0  0
  9 14  1  0  0  0
 10 12  2  0  0  0
 10 23  1  0  0  0
 11 13  2  0  0  0
 12 13  1  0  0  0
 12 24  1  0  0  0
 16 17  1  0  0  0
 17 19  2  0  0  0
 17 20  1  0  0  0
 18 21  2  0  0  0
 18 22  1  0  0  0
 18 25  1  0  0  0
 19 21  1  0  0  0
 20 22  2  0  0  0
M  END
>  <$CLUSTER>
727

>  <CHROM.0>
176.77266756,171.34062478,76.11932795

>  <CHROM.1>
-1.34480013,3.87191719,12.06511357,0.21832185,-0.59517179,-2.05554943

>  <INDEX>
553334

>  <Name>
Chem T&I IVK/0000805

>  <RI>
-2.07807e+09

>  <Rbt.Current_Directory>
/aloy/home/acomajuncosa/PocketVec_v2/GitLab_repo

>  <Rbt.Executable>
rbdock ($Id: //depot/dev/client3/rdock/2021.1/src/exe/rbdock.cxx#4 $)

>  <Rbt.Library>
libRbt.so (2021.1, Build901 2021/07/19)

>  <Rbt.Parameter_File>
examples/2_pocketvec/rDock_results/dock.prm

>  <Rbt.Receptor>
examples/2_pocketvec/rDock_results/st_parameters.prm

>  <SCORE>
-11.7413

>  <SCORE.INTER>
-6.30752

>  <SCORE.INTER.CONST>
1

>  <SCORE.INTER.POLAR>
-0.65649

>  <SCORE.INTER.REPUL>
0

>  <SCORE.INTER.ROT>
4

>  <SCORE.INTER.VDW>
-13.4755

>  <SCORE.INTER.norm>
-0.252301

>  <SCORE.INTRA>
-1.26699e-12

>  <SCORE.INTRA.DIHEDRAL>
2.4869e-14

>  <SCORE.INTRA.DIHEDRAL.0>
2.61314

>  <SCORE.INTRA.POLAR>
0

>  <SCORE.INTRA.POLAR.0>
0

>  <SCORE.INTRA.REPUL>
0

>  <SCORE.INTRA.REPUL.0>
0

>  <SCORE.INTRA.VDW>
-1.27942e-12

>  <SCORE.INTRA.VDW.0>
-2.23276

>  <SCORE.INTRA.norm>
-5.06795e-14

>  <SCORE.RESTR>
0

>  <SCORE.RESTR.CAVITY>
0

>  <SCORE.RESTR.norm>
0

>  <SCORE.SYSTEM>
-5.43377

>  <SCORE.SYSTEM.CONST>
0

>  <SCORE.SYSTEM.DIHEDRAL>
1.65355

>  <SCORE.SYSTEM.POLAR>
-1.76388

>  <SCORE.SYSTEM.VDW>
-0.263343

>  <SCORE.SYSTEM.norm>
-0.217351

>  <SCORE.heavy>
25

>  <SCORE.norm>
-0.469652

$$$$
InterBioScreen STOCK5S-68320
  rDOCK(R)          3D
libRbt.so/2021.1/901 2021/07/19
 31 33  0  0  0  0  0  0  0  0999 V2000
   -3.9392    5.1249   10.0136 C   0  0  0  0  0  0
   -4.5517    4.9657   11.2539 N   0  0  0  0  0  0
   -4.0322    3.9080   11.8009 C   0  0  0  0  0  0
   -4.2502    6.1368    9.1785 C   0  0  0  0  0  0
   -4.3520    3.3856   13.0370 N   0  0  0  0  0  0
   -2.9605    4.0463    9.8179 C   0  0  0  0  0  0
   -3.0252    3.2639   10.9768 C   0  0  0  0  0  0
   -5.2984    3.9162   13.9145 C   0  0  0  0  0  0
   -5.2906    7.1719    9.5350 C   0  0  0  0  0  0
   -3.6228    6.3573    7.8296 C   0  0  0  0  0  0
   -3.0998    6.4299    6.8527 N   0  0  0  0  0  0
   -5.4050    3.1054   15.1799 C   0  0  0  0  0  0
   -5.9863    4.9146   13.7252 O   0  0  0  0  0  0
   -5.8740    7.0477   10.6808 O   0  0  0  0  0  0
   -5.5812    8.1549    8.7070 N   0  0  0  0  0  0
   -4.3880    2.3562   15.7125 C   0  0  0  0  0  0
   -6.6442    3.2115   15.8751 C   0  0  0  0  0  0
   -5.7869    1.7384   17.5875 C   0  0  0  0  0  0
   -6.8219    2.5134   17.0704 C   0  0  0  0  0  0
   -4.5702    1.6618   16.9100 C   0  0  0  0  0  0
   -6.0399    1.1014   18.7320 F   0  0  0  0  0  0
   -2.0785    3.6897    8.8168 C   0  0  0  0  0  0
   -2.2519    2.1417   11.1842 C   0  0  0  0  0  0
   -6.5169    9.2034    8.8721 C   0  0  0  0  0  0
   -5.9148   10.3661    9.6377 C   0  0  0  0  0  0
   -6.9094   11.5073    9.8393 C   0  0  0  0  0  0
   -1.2780    2.5536    8.9978 C   0  0  0  0  0  0
   -1.3636    1.7864   10.1710 C   0  0  0  0  0  0
   -6.2989   12.6633   10.6049 C   0  0  0  0  0  0
   -3.8618    2.5531   13.3297 H   0  0  0  0  0  0
   -5.0668    8.1604    7.8379 H   0  0  0  0  0  0
  1  2  1  0  0  0
  1  4  2  0  0  0
  1  6  1  0  0  0
  2  3  2  0  0  0
  3  5  1  0  0  0
  3  7  1  0  0  0
  4  9  1  0  0  0
  4 10  1  0  0  0
  5  8  1  0  0  0
  5 30  1  0  0  0
  6  7  1  0  0  0
  6 22  2  0  0  0
  7 23  2  0  0  0
  8 12  1  0  0  0
  8 13  2  0  0  0
  9 14  2  0  0  0
  9 15  1  0  0  0
 10 11  3  0  0  0
 12 16  1  0  0  0
 12 17  2  0  0  0
 15 24  1  0  0  0
 15 31  1  0  0  0
 16 20  2  0  0  0
 17 19  1  0  0  0
 18 19  2  0  0  0
 18 20  1  0  0  0
 18 21  1  0  0  0
 22 27  1  0  0  0
 23 28  1  0  0  0
 24 25  1  0  0  0
 25 26  1  0  0  0
 26 29  1  0  0  0
 27 28  2  0  0  0
M  END
>  <$CLUSTER>
585

>  <CHROM.0>
176.96953305,172.10139821,73.69829785

>  <CHROM.1>
-4.69326210,5.03991359,11.87914343,-1.54677000,-0.91258227,2.32641055

>  <INDEX>
384775

>  <Name>
InterBioScreen STOCK5S-68320

>  <RI>
-2.07807e+09

>  <Rbt.Current_Directory>
/aloy/home/acomajuncosa/PocketVec_v2/GitLab_repo

>  <Rbt.Executable>
rbdock ($Id: //depot/dev/client3/rdock/2021.1/src/exe/rbdock.cxx#4 $)

>  <Rbt.Library>
libRbt.so (2021.1, Build901 2021/07/19)

>  <Rbt.Parameter_File>
examples/2_pocketvec/rDock_results/dock.prm

>  <Rbt.Receptor>
examples/2_pocketvec/rDock_results/st_parameters.prm

>  <SCORE>
-11.4711

>  <SCORE.INTER>
-6.01352

>  <SCORE.INTER.CONST>
1

>  <SCORE.INTER.POLAR>
0

>  <SCORE.INTER.REPUL>
0

>  <SCORE.INTER.ROT>
6

>  <SCORE.INTER.VDW>
-17.4135

>  <SCORE.INTER.norm>
-0.207363

>  <SCORE.INTRA>
2.6576e-13

>  <SCORE.INTRA.DIHEDRAL>
8.46878e-13

>  <SCORE.INTRA.DIHEDRAL.0>
3.6212

>  <SCORE.INTRA.POLAR>
0

>  <SCORE.INTRA.POLAR.0>
0

>  <SCORE.INTRA.REPUL>
4.21607e-14

>  <SCORE.INTRA.REPUL.0>
0.104275

>  <SCORE.INTRA.VDW>
-3.68483e-13

>  <SCORE.INTRA.VDW.0>
-0.528646

>  <SCORE.INTRA.norm>
9.16413e-15

>  <SCORE.RESTR>
0

>  <SCORE.RESTR.CAVITY>
0

>  <SCORE.RESTR.norm>
0

>  <SCORE.SYSTEM>
-5.45763

>  <SCORE.SYSTEM.CONST>
0

>  <SCORE.SYSTEM.DIHEDRAL>
1.27325

>  <SCORE.SYSTEM.POLAR>
-1.74423

>  <SCORE.SYSTEM.VDW>
-0.163859

>  <SCORE.SYSTEM.norm>
-0.188194

>  <SCORE.heavy>
29

>  <SCORE.norm>
-0.395557

$$$$
InterBioScreen STOCK3S-83770
  rDOCK(R)          3D
libRbt.so/2021.1/901 2021/07/19
 30 33  0  0  0  0  0  0  0  0999 V2000
   -3.9984    8.1511   13.1376 N   0  0  0  0  0  0
   -3.8587    7.9858   14.4852 N   0  0  0  0  0  0
   -2.9634    8.6432   15.2871 C   0  0  0  0  0  0
   -3.2247    9.0089   12.5399 C   0  0  0  0  0  0
   -2.1053    9.6268   14.6237 C   0  0  0  0  0  0
   -2.2316    9.8297   13.2542 C   0  0  0  0  0  0
   -5.1294    4.5243   15.5396 C   0  0  0  0  0  0
   -3.3771    9.1393   11.0810 C   0  0  0  0  0  0
   -4.7788    6.9556   15.0591 C   0  0  0  0  0  0
   -4.1929    5.5553   14.9703 C   0  0  0  0  0  0
   -2.8715    8.4422   16.4959 O   0  0  0  0  0  0
   -4.6048    3.2416   15.4623 N   0  0  0  0  0  0
   -6.2312    4.7624   16.0200 O   0  0  0  0  0  0
   -2.3911    8.6355   10.2307 C   0  0  0  0  0  0
   -4.5261    9.7445   10.5715 C   0  0  0  0  0  0
   -5.1383    2.0042   15.8710 C   0  0  0  0  0  0
   -2.5504    8.7630    8.8504 C   0  0  0  0  0  0
   -4.6779    9.8687    9.1897 C   0  0  0  0  0  0
   -3.6900    9.3809    8.3312 C   0  0  0  0  0  0
   -1.1806   10.3668   15.3688 C   0  0  0  0  0  0
   -1.4453   10.7996   12.6249 C   0  0  0  0  0  0
   -3.8511    9.5189    6.8519 C   0  0  0  0  0  0
   -4.3697    0.8489   15.6642 C   0  0  0  0  0  0
   -6.3960    1.8780   16.4708 C   0  0  0  0  0  0
   -0.5226   11.5401   13.3661 C   0  0  0  0  0  0
   -0.3870   11.3221   14.7363 C   0  0  0  0  0  0
   -6.8719    0.6207   16.8555 C   0  0  0  0  0  0
   -4.8479   -0.4064   16.0498 C   0  0  0  0  0  0
   -6.1011   -0.5208   16.6452 C   0  0  0  0  0  0
   -3.6876    3.1863   15.0432 H   0  0  0  0  0  0
  1  2  1  0  0  0
  1  4  2  0  0  0
  2  3  1  0  0  0
  2  9  1  0  0  0
  3  5  1  0  0  0
  3 11  2  0  0  0
  4  6  1  0  0  0
  4  8  1  0  0  0
  5  6  2  0  0  0
  5 20  1  0  0  0
  6 21  1  0  0  0
  7 10  1  0  0  0
  7 12  1  0  0  0
  7 13  2  0  0  0
  8 14  2  0  0  0
  8 15  1  0  0  0
  9 10  1  0  0  0
 12 16  1  0  0  0
 12 30  1  0  0  0
 14 17  1  0  0  0
 15 18  2  0  0  0
 16 23  1  0  0  0
 16 24  2  0  0  0
 17 19  2  0  0  0
 18 19  1  0  0  0
 19 22  1  0  0  0
 20 26  2  0  0  0
 21 25  2  0  0  0
 23 28  2  0  0  0
 24 27  1  0  0  0
 25 26  1  0  0  0
 27 29  2  0  0  0
 28 29  1  0  0  0
M  END
>  <$CLUSTER>
531

>  <CHROM.0>
176.70353522,172.75705233,72.81459247

>  <CHROM.1>
-3.76746688,6.87874532,13.67083320,0.91091011,-1.08072177,-1.13630654

>  <INDEX>
345888

>  <Name>
InterBioScreen STOCK3S-83770

>  <RI>
-2.07807e+09

>  <Rbt.Current_Directory>
/aloy/home/acomajuncosa/PocketVec_v2/GitLab_repo

>  <Rbt.Executable>
rbdock ($Id: //depot/dev/client3/rdock/2021.1/src/exe/rbdock.cxx#4 $)

>  <Rbt.Library>
libRbt.so (2021.1, Build901 2021/07/19)

>  <Rbt.Parameter_File>
examples/2_pocketvec/rDock_results/dock.prm

>  <Rbt.Receptor>
examples/2_pocketvec/rDock_results/st_parameters.prm

>  <SCORE>
-13.1573

>  <SCORE.INTER>
-7.71

>  <SCORE.INTER.CONST>
1

>  <SCORE.INTER.POLAR>
0

>  <SCORE.INTER.REPUL>
0

>  <SCORE.INTER.ROT>
5

>  <SCORE.INTER.VDW>
-18.11

>  <SCORE.INTER.norm>
-0.265862

>  <SCORE.INTRA>
-3.51275e-13

>  <SCORE.INTRA.DIHEDRAL>
-8.58869e-13

>  <SCORE.INTRA.DIHEDRAL.0>
7.90041

>  <SCORE.INTRA.POLAR>
0

>  <SCORE.INTRA.POLAR.0>
0

>  <SCORE.INTRA.REPUL>
0

>  <SCORE.INTRA.REPUL.0>
0

>  <SCORE.INTRA.VDW>
7.81597e-14

>  <SCORE.INTRA.VDW.0>
-1.44586

>  <SCORE.INTRA.norm>
-1.21129e-14

>  <SCORE.RESTR>
0

>  <SCORE.RESTR.CAVITY>
0

>  <SCORE.RESTR.norm>
0

>  <SCORE.SYSTEM>
-5.44729

>  <SCORE.SYSTEM.CONST>
0

>  <SCORE.SYSTEM.DIHEDRAL>
1.12327

>  <SCORE.SYSTEM.POLAR>
-1.73692

>  <SCORE.SYSTEM.VDW>
-0.103398

>  <SCORE.SYSTEM.norm>
-0.187838

>  <SCORE.heavy>
29

>  <SCORE.norm>
-0.4537

$$$$
Life Chemicals F0529-0304
  rDOCK(R)          3D
libRbt.so/2021.1/901 2021/07/19
 25 27  0  0  0  0  0  0  0  0999 V2000
   -4.4342    6.8229   12.2341 C   0  0  0  0  0  0
   -5.1406    5.4478   12.9695 S   0  0  0  0  0  0
   -3.7299    5.3256   13.9262 C   0  0  0  0  0  0
   -3.2422    7.1350   12.6917 N   0  0  0  0  0  0
   -5.1379    7.5586   11.1614 C   0  0  0  0  0  0
   -2.8327    6.2595   13.6802 N   0  0  0  0  0  0
   -3.5541    4.3329   14.8724 N   0  0  0  0  0  0
   -4.4490    3.3193   15.1878 C   0  0  0  0  0  0
   -4.4809    7.8894    9.9567 C   0  0  0  0  0  0
   -3.8946    2.4304   16.2750 C   0  0  0  0  0  0
   -4.8219    1.2925   16.6786 C   0  0  0  0  0  0
   -6.4730    7.9621   11.3437 C   0  0  0  0  0  0
   -5.9466    1.5181   17.9371 S   0  0  0  0  0  0
   -5.1698    8.6005    8.9651 C   0  0  0  0  0  0
   -6.5667   -0.0625   17.7273 C   0  0  0  0  0  0
   -5.5551    3.0987   14.7049 O   0  0  0  0  0  0
   -4.9224    0.0599   16.0923 C   0  0  0  0  0  0
   -5.9320   -0.7347   16.7074 C   0  0  0  0  0  0
   -6.4970    8.9867    9.1623 C   0  0  0  0  0  0
   -7.1483    8.6698   10.3487 C   0  0  0  0  0  0
   -3.1806    7.4619    9.8322 O   0  0  0  0  0  0
   -7.0486    9.6799    8.1080 O   0  0  0  0  0  0
   -2.4850    7.8050    8.6396 C   0  0  0  0  0  0
   -8.4005   10.1001    8.2553 C   0  0  0  0  0  0
   -2.6849    4.3466   15.3875 H   0  0  0  0  0  0
  1  2  1  0  0  0
  1  4  2  0  0  0
  1  5  1  0  0  0
  2  3  1  0  0  0
  3  6  2  0  0  0
  3  7  1  0  0  0
  4  6  1  0  0  0
  5  9  2  0  0  0
  5 12  1  0  0  0
  7  8  1  0  0  0
  7 25  1  0  0  0
  8 10  1  0  0  0
  8 16  2  0  0  0
  9 14  1  0  0  0
  9 21  1  0  0  0
 10 11  1  0  0  0
 11 13  1  0  0  0
 11 17  2  0  0  0
 12 20  2  0  0  0
 13 15  1  0  0  0
 14 19  2  0  0  0
 15 18  2  0  0  0
 17 18  1  0  0  0
 19 20  1  0  0  0
 19 22  1  0  0  0
 21 23  1  0  0  0
 22 24  1  0  0  0
M  END
>  <$CLUSTER>
409

>  <CHROM.0>
175.68386999,171.94066615,73.31399528

>  <CHROM.1>
-5.08608994,5.30341871,13.02110182,-1.60141217,0.02510467,2.35698832

>  <INDEX>
271975

>  <Name>
Life Chemicals F0529-0304

>  <RI>
-2.07807e+09

>  <Rbt.Current_Directory>
/aloy/home/acomajuncosa/PocketVec_v2/GitLab_repo

>  <Rbt.Executable>
rbdock ($Id: //depot/dev/client3/rdock/2021.1/src/exe/rbdock.cxx#4 $)

>  <Rbt.Library>
libRbt.so (2021.1, Build901 2021/07/19)

>  <Rbt.Parameter_File>
examples/2_pocketvec/rDock_results/dock.prm

>  <Rbt.Receptor>
examples/2_pocketvec/rDock_results/st_parameters.prm

>  <SCORE>
-13.0714

>  <SCORE.INTER>
-7.61694

>  <SCORE.INTER.CONST>
1

>  <SCORE.INTER.POLAR>
0

>  <SCORE.INTER.REPUL>
0

>  <SCORE.INTER.ROT>
6

>  <SCORE.INTER.VDW>
-19.0169

>  <SCORE.INTER.norm>
-0.317372

>  <SCORE.INTRA>
-7.02549e-13

>  <SCORE.INTRA.DIHEDRAL>
-5.31131e-13

>  <SCORE.INTRA.DIHEDRAL.0>
10.1997

>  <SCORE.INTRA.POLAR>
0

>  <SCORE.INTRA.POLAR.0>
0

>  <SCORE.INTRA.REPUL>
0

>  <SCORE.INTRA.REPUL.0>
0

>  <SCORE.INTRA.VDW>
-4.36984e-13

>  <SCORE.INTRA.VDW.0>
2.25966

>  <SCORE.INTRA.norm>
-2.92729e-14

>  <SCORE.RESTR>
0

>  <SCORE.RESTR.CAVITY>
0

>  <SCORE.RESTR.norm>
0

>  <SCORE.SYSTEM>
-5.45448

>  <SCORE.SYSTEM.CONST>
0

>  <SCORE.SYSTEM.DIHEDRAL>
1.25462

>  <SCORE.SYSTEM.POLAR>
-1.74106

>  <SCORE.SYSTEM.VDW>
-0.16218

>  <SCORE.SYSTEM.norm>
-0.22727

>  <SCORE.heavy>
24

>  <SCORE.norm>
-0.544642

$$$$
Chem T&I AMSACS-12205
  rDOCK(R)          3D
libRbt.so/2021.1/901 2021/07/19
 26 28  0  0  0  0  0  0  0  0999 V2000
   -3.1022    6.5609   13.1988 S   0  0  0  0  0  0
   -3.5573    4.1917   14.4718 C   0  0  0  0  0  0
   -4.0337    3.5845   13.3336 N   0  0  0  0  0  0
   -3.1762    5.5392   14.5489 N   0  0  0  0  0  0
   -3.4774    3.3805   15.5350 N   0  0  0  0  0  0
   -3.9270    2.2237   15.0299 N   0  0  0  0  0  0
   -1.6608    5.9186   12.3776 C   0  0  0  0  0  0
   -4.2552    2.3510   13.7199 C   0  0  0  0  0  0
   -4.2461    6.3424   12.3369 O   0  0  0  0  0  0
   -2.7698    7.8957   13.6594 O   0  0  0  0  0  0
   -1.8265    4.9214   11.4172 C   0  0  0  0  0  0
   -0.7025    4.4287   10.7549 C   0  0  0  0  0  0
    0.5639    4.9341   11.0520 C   0  0  0  0  0  0
   -4.0125    1.0387   15.8539 C   0  0  0  0  0  0
   -0.4087    6.4338   12.6802 C   0  0  0  0  0  0
    0.7100    5.9353   12.0135 C   0  0  0  0  0  0
   -5.2823    1.0065   16.6849 C   0  0  0  0  0  0
   -5.3267    1.6458   17.9289 C   0  0  0  0  0  0
   -6.5033    1.6410   18.6796 C   0  0  0  0  0  0
   -6.5540    2.4092   20.1997 Cl  0  0  0  0  0  0
   -7.6082    0.3785   16.9455 C   0  0  0  0  0  0
   -0.8473    3.3569    9.7226 C   0  0  0  0  0  0
   -6.4324    0.3814   16.1917 C   0  0  0  0  0  0
    1.7619    4.3986   10.3376 C   0  0  0  0  0  0
   -7.6427    1.0065   18.1889 C   0  0  0  0  0  0
   -2.9344    5.9190   15.4529 H   0  0  0  0  0  0
  1  4  1  0  0  0
  1  7  1  0  0  0
  1  9  2  0  0  0
  1 10  2  0  0  0
  2  3  1  0  0  0
  2  4  1  0  0  0
  2  5  2  0  0  0
  3  8  2  0  0  0
  4 26  1  0  0  0
  5  6  1  0  0  0
  6  8  1  0  0  0
  6 14  1  0  0  0
  7 11  1  0  0  0
  7 15  2  0  0  0
 11 12  2  0  0  0
 12 13  1  0  0  0
 12 22  1  0  0  0
 13 16  2  0  0  0
 13 24  1  0  0  0
 14 17  1  0  0  0
 15 16  1  0  0  0
 17 18  2  0  0  0
 17 23  1  0  0  0
 18 19  1  0  0  0
 19 20  1  0  0  0
 19 25  2  0  0  0
 21 23  2  0  0  0
 21 25  1  0  0  0
M  END
>  <$CLUSTER>
791

>  <CHROM.0>
171.86138373,171.86137280,73.48747424

>  <CHROM.1>
-3.52130971,3.80195555,14.52253081,0.30419306,0.91192317,0.15185250

>  <INDEX>
518655

>  <Name>
Chem T&I AMSACS-12205

>  <RI>
-2.07807e+09

>  <Rbt.Current_Directory>
/aloy/home/acomajuncosa/PocketVec_v2/GitLab_repo

>  <Rbt.Executable>
rbdock ($Id: //depot/dev/client3/rdock/2021.1/src/exe/rbdock.cxx#4 $)

>  <Rbt.Library>
libRbt.so (2021.1, Build901 2021/07/19)

>  <Rbt.Parameter_File>
examples/2_pocketvec/rDock_results/dock.prm

>  <Rbt.Receptor>
examples/2_pocketvec/rDock_results/st_parameters.prm

>  <SCORE>
-12.3131

>  <SCORE.INTER>
-6.84942

>  <SCORE.INTER.CONST>
1

>  <SCORE.INTER.POLAR>
0

>  <SCORE.INTER.REPUL>
0

>  <SCORE.INTER.ROT>
5

>  <SCORE.INTER.VDW>
-17.2494

>  <SCORE.INTER.norm>
-0.273977

>  <SCORE.INTRA>
-1.50147e-12

>  <SCORE.INTRA.DIHEDRAL>
-2.93277e-12

>  <SCORE.INTRA.DIHEDRAL.0>
6.88444

>  <SCORE.INTRA.POLAR>
0

>  <SCORE.INTRA.POLAR.0>
0

>  <SCORE.INTRA.REPUL>
0

>  <SCORE.INTRA.REPUL.0>
0

>  <SCORE.INTRA.VDW>
-3.5083e-14

>  <SCORE.INTRA.VDW.0>
-3.07981

>  <SCORE.INTRA.norm>
-6.00586e-14

>  <SCORE.RESTR>
0

>  <SCORE.RESTR.CAVITY>
0

>  <SCORE.RESTR.norm>
0

>  <SCORE.SYSTEM>
-5.46364

>  <SCORE.SYSTEM.CONST>
0

>  <SCORE.SYSTEM.DIHEDRAL>
1.35714

>  <SCORE.SYSTEM.POLAR>
-1.74249

>  <SCORE.SYSTEM.VDW>
-0.217724

>  <SCORE.SYSTEM.norm>
-0.218546

>  <SCORE.heavy>
25

>  <SCORE.norm>
-0.492522

$$$$
Nanosyn NS40942
  rDOCK(R)          3D
libRbt.so/2021.1/901 2021/07/19
 29 31  0  0  0  0  0  0  0  0999 V2000
    1.2796    4.3117   11.0071 S   0  0  0  0  0  0
    1.4618    9.1798   13.0148 C   0  0  0  0  0  0
    0.1507    3.5793   12.0697 N   0  0  0  0  0  0
    1.9919    5.5335   12.0862 C   0  0  0  0  0  0
    0.1186    9.3261   12.7467 N   0  0  0  0  0  0
    2.0167    7.8090   12.9391 C   0  0  0  0  0  0
    2.3205    3.3414   10.7233 O   0  0  0  0  0  0
    0.6068    5.0075    9.9281 O   0  0  0  0  0  0
    1.4398    6.8303   12.1280 C   0  0  0  0  0  0
    2.1904   10.1206   13.3221 O   0  0  0  0  0  0
   -1.0347    4.3189   12.4108 C   0  0  0  0  0  0
   -0.7135   10.4268   12.7256 C   0  0  0  0  0  0
   -3.2985    5.7961   13.1063 C   0  0  0  0  0  0
   -2.5008   12.5933   12.6536 C   0  0  0  0  0  0
   -0.2696   11.7196   13.0166 C   0  0  0  0  0  0
   -2.0637   10.2324   12.3984 C   0  0  0  0  0  0
   -2.0143    4.5871   11.4521 C   0  0  0  0  0  0
   -1.1872    4.7908   13.7181 C   0  0  0  0  0  0
   -3.1456    5.3248   11.8027 C   0  0  0  0  0  0
   -2.9528   11.3082   12.3624 C   0  0  0  0  0  0
   -1.1622   12.7964   12.9798 C   0  0  0  0  0  0
   -2.3203    5.5281   14.0635 C   0  0  0  0  0  0
    3.1422    5.2504   12.8359 C   0  0  0  0  0  0
    3.1515    7.5101   13.6957 C   0  0  0  0  0  0
    3.7134    6.2332   13.6444 C   0  0  0  0  0  0
   -4.5086    6.5888   13.4797 C   0  0  0  0  0  0
   -3.4493   13.7455   12.6159 C   0  0  0  0  0  0
    0.3134    2.6559   12.4452 H   0  0  0  0  0  0
   -0.3480    8.4588   12.5212 H   0  0  0  0  0  0
  1  3  1  0  0  0
  1  4  1  0  0  0
  1  7  2  0  0  0
  1  8  2  0  0  0
  2  5  1  0  0  0
  2  6  1  0  0  0
  2 10  2  0  0  0
  3 11  1  0  0  0
  3 28  1  0  0  0
  4  9  2  0  0  0
  4 23  1  0  0  0
  5 12  1  0  0  0
  5 29  1  0  0  0
  6  9  1  0  0  0
  6 24  2  0  0  0
 11 17  2  0  0  0
 11 18  1  0  0  0
 12 15  1  0  0  0
 12 16  2  0  0  0
 13 19  2  0  0  0
 13 22  1  0  0  0
 13 26  1  0  0  0
 14 20  2  0  0  0
 14 21  1  0  0  0
 14 27  1  0  0  0
 15 21  2  0  0  0
 16 20  1  0  0  0
 17 19  1  0  0  0
 18 22  2  0  0  0
 23 25  2  0  0  0
 24 25  1  0  0  0
M  END
>  <$CLUSTER>
85

>  <CHROM.0>
176.39737089,171.61493721,73.42912116

>  <CHROM.1>
-0.17272016,7.35715326,12.44790245,-1.19878364,0.00576567,0.13798174

>  <INDEX>
565184

>  <Name>
Nanosyn NS40942

>  <RI>
-2.07807e+09

>  <Rbt.Current_Directory>
/aloy/home/acomajuncosa/PocketVec_v2/GitLab_repo

>  <Rbt.Executable>
rbdock ($Id: //depot/dev/client3/rdock/2021.1/src/exe/rbdock.cxx#4 $)

>  <Rbt.Library>
libRbt.so (2021.1, Build901 2021/07/19)

>  <Rbt.Parameter_File>
examples/2_pocketvec/rDock_results/dock.prm

>  <Rbt.Receptor>
examples/2_pocketvec/rDock_results/st_parameters.prm

>  <SCORE>
-9.71722

>  <SCORE.INTER>
-4.26145

>  <SCORE.INTER.CONST>
1

>  <SCORE.INTER.POLAR>
-0.609671

>  <SCORE.INTER.REPUL>
0

>  <SCORE.INTER.ROT>
5

>  <SCORE.INTER.VDW>
-12.5886

>  <SCORE.INTER.norm>
-0.157831

>  <SCORE.INTRA>
8.86402e-13

>  <SCORE.INTRA.DIHEDRAL>
1.65201e-13

>  <SCORE.INTRA.DIHEDRAL.0>
15.9801

>  <SCORE.INTRA.POLAR>
0

>  <SCORE.INTRA.POLAR.0>
0

>  <SCORE.INTRA.REPUL>
0

>  <SCORE.INTRA.REPUL.0>
0

>  <SCORE.INTRA.VDW>
8.03801e-13

>  <SCORE.INTRA.VDW.0>
-2.85529

>  <SCORE.INTRA.norm>
3.28297e-14

>  <SCORE.RESTR>
0

>  <SCORE.RESTR.CAVITY>
0

>  <SCORE.RESTR.norm>
0

>  <SCORE.SYSTEM>
-5.45577

>  <SCORE.SYSTEM.CONST>
0

>  <SCORE.SYSTEM.DIHEDRAL>
1.28432

>  <SCORE.SYSTEM.POLAR>
-1.74201

>  <SCORE.SYSTEM.VDW>
-0.175091

>  <SCORE.SYSTEM.norm>
-0.202066

>  <SCORE.heavy>
27

>  <SCORE.norm>
-0.359897

$$$$
Comgenex CGX-3127127
  rDOCK(R)          3D
libRbt.so/2021.1/901 2021/07/19
 31 33  0  0  0  0  0  0  0  0999 V2000
   -4.1192    2.9046   12.1664 S   0  0  0  0  0  0
   -3.1973    2.1084   10.9676 C   0  0  0  0  0  0
   -4.1551    1.4207   13.0197 C   0  0  0  0  0  0
   -3.5208    0.4343   12.4265 N   0  0  0  0  0  0
   -2.7442    2.7483    9.8291 N   0  0  0  0  0  0
   -2.9621    0.8379   11.2285 N   0  0  0  0  0  0
   -2.9497    4.0768    9.4846 C   0  0  0  0  0  0
   -0.8055    4.3442    8.2290 N   0  0  0  0  0  0
   -0.0009    3.9463    7.2070 C   0  0  0  0  0  0
   -2.2965    4.3989    8.1633 C   0  0  0  0  0  0
   -4.8546    1.2693   14.3315 C   0  0  0  0  0  0
    1.4540    3.9703    7.5881 C   0  0  0  0  0  0
   -3.5628    4.9399   10.1057 O   0  0  0  0  0  0
   -0.3743    3.6329    6.0787 O   0  0  0  0  0  0
   -4.8215    0.0228   14.9830 C   0  0  0  0  0  0
   -5.5508    2.3164   14.9589 C   0  0  0  0  0  0
    2.3790    4.1060    6.5056 C   0  0  0  0  0  0
    1.9247    3.7860    8.8592 C   0  0  0  0  0  0
   -2.6819    5.7839    7.5960 C   0  0  0  0  0  0
    4.2082    3.9436    8.0752 C   0  0  0  0  0  0
    3.7504    4.1036    6.7694 C   0  0  0  0  0  0
    3.2976    3.7832    9.1178 C   0  0  0  0  0  0
   -5.4597   -0.1702   16.2122 C   0  0  0  0  0  0
   -6.1886    2.1220   16.1879 C   0  0  0  0  0  0
   -6.1433    0.8794   16.8147 C   0  0  0  0  0  0
    5.8830    3.9468    8.3832 Cl  0  0  0  0  0  0
   -2.2366    6.0357    6.1581 C   0  0  0  0  0  0
   -2.2990    6.9780    8.4781 C   0  0  0  0  0  0
   -6.8236    0.6736   18.1270 C   0  0  0  0  0  0
   -2.2074    2.1903    9.1796 H   0  0  0  0  0  0
   -0.3633    4.6224    9.0934 H   0  0  0  0  0  0
  1  2  1  0  0  0
  1  3  1  0  0  0
  2  5  1  0  0  0
  2  6  2  0  0  0
  3  4  2  0  0  0
  3 11  1  0  0  0
  4  6  1  0  0  0
  5  7  1  0  0  0
  5 30  1  0  0  0
  7 10  1  0  0  0
  7 13  2  0  0  0
  8  9  1  0  0  0
  8 10  1  0  0  0
  8 31  1  0  0  0
  9 12  1  0  0  0
  9 14  2  0  0  0
 10 19  1  0  0  0
 11 15  2  0  0  0
 11 16  1  0  0  0
 12 17  2  0  0  0
 12 18  1  0  0  0
 15 23  1  0  0  0
 16 24  2  0  0  0
 17 21  1  0  0  0
 18 22  2  0  0  0
 19 27  1  0  0  0
 19 28  1  0  0  0
 20 21  2  0  0  0
 20 22  1  0  0  0
 20 26  1  0  0  0
 23 25  2  0  0  0
 24 25  1  0  0  0
 25 29  1  0  0  0
M  END
>  <$CLUSTER>
391

>  <CHROM.0>
-0.27387381,173.08986919,76.43009991

>  <CHROM.1>
-1.61312706,3.15546849,10.52826140,2.35969460,-0.16086136,2.11629646

>  <INDEX>
260085

>  <Name>
Comgenex CGX-3127127

>  <RI>
-2.07807e+09

>  <Rbt.Current_Directory>
/aloy/home/acomajuncosa/PocketVec_v2/GitLab_repo

>  <Rbt.Executable>
rbdock ($Id: //depot/dev/client3/rdock/2021.1/src/exe/rbdock.cxx#4 $)

>  <Rbt.Library>
libRbt.so (2021.1, Build901 2021/07/19)

>  <Rbt.Parameter_File>
examples/2_pocketvec/rDock_results/dock.prm

>  <Rbt.Receptor>
examples/2_pocketvec/rDock_results/st_parameters.prm

>  <SCORE>
-15.3177

>  <SCORE.INTER>
-9.74061

>  <SCORE.INTER.CONST>
1

>  <SCORE.INTER.POLAR>
0

>  <SCORE.INTER.REPUL>
0.0516188

>  <SCORE.INTER.ROT>
6

>  <SCORE.INTER.VDW>
-21.3987

>  <SCORE.INTER.norm>
-0.335883

>  <SCORE.INTRA>
2.62013e-13

>  <SCORE.INTRA.DIHEDRAL>
1.65201e-13

>  <SCORE.INTRA.DIHEDRAL.0>
5.14046

>  <SCORE.INTRA.POLAR>
0

>  <SCORE.INTRA.POLAR.0>
0

>  <SCORE.INTRA.REPUL>
0

>  <SCORE.INTRA.REPUL.0>
0

>  <SCORE.INTRA.VDW>
1.79412e-13

>  <SCORE.INTRA.VDW.0>
-1.04165

>  <SCORE.INTRA.norm>
9.03492e-15

>  <SCORE.RESTR>
0

>  <SCORE.RESTR.CAVITY>
0

>  <SCORE.RESTR.norm>
0

>  <SCORE.SYSTEM>
-5.57713

>  <SCORE.SYSTEM.CONST>
0

>  <SCORE.SYSTEM.DIHEDRAL>
1.54822

>  <SCORE.SYSTEM.POLAR>
-1.76636

>  <SCORE.SYSTEM.VDW>
-0.345606

>  <SCORE.SYSTEM.norm>
-0.192315

>  <SCORE.heavy>
29

>  <SCORE.norm>
-0.528198

$$$$
Pharmeks PHAR059863
  rDOCK(R)          3D
libRbt.so/2021.1/901 2021/07/19
 26 28  0  0  0  0  0  0  0  0999 V2000
   -5.1980    6.6711   13.4979 S   0  0  0  0  0  0
   -3.9583    7.5459   12.5899 C   0  0  0  0  0  0
   -3.9534    5.5035   13.9191 C   0  0  0  0  0  0
   -4.2940    8.6284   11.9762 N   0  0  0  0  0  0
   -2.7579    5.7091   13.4587 N   0  0  0  0  0  0
   -3.3485    9.3282   11.2627 C   0  0  0  0  0  0
   -2.7803    6.8519   12.7207 N   0  0  0  0  0  0
   -3.8748   10.4552   10.6729 N   0  0  0  0  0  0
   -4.3295    4.3453   14.7766 C   0  0  0  0  0  0
   -2.1609    9.0338   11.1284 O   0  0  0  0  0  0
   -3.2679    3.6695   15.4155 C   0  0  0  0  0  0
   -5.6241    3.9060   14.9430 C   0  0  0  0  0  0
   -3.2909   11.4582    9.8605 C   0  0  0  0  0  0
   -4.8526    2.1354   16.4032 C   0  0  0  0  0  0
   -3.5409    2.5676   16.2307 C   0  0  0  0  0  0
   -5.8922    2.8028   15.7591 C   0  0  0  0  0  0
   -4.9889    1.0388   17.2249 O   0  0  0  0  0  0
   -6.3109    0.5452   17.4382 C   0  0  0  0  0  0
   -1.9398   11.4409    9.5019 C   0  0  0  0  0  0
   -4.0997   12.5080    9.3995 C   0  0  0  0  0  0
   -6.2188   -0.6517   18.3673 C   0  0  0  0  0  0
   -3.5686   13.5186    8.5960 C   0  0  0  0  0  0
   -1.4100   12.4545    8.6966 C   0  0  0  0  0  0
   -2.2219   13.4924    8.2445 C   0  0  0  0  0  0
   -1.9387    7.1867   12.2737 H   0  0  0  0  0  0
   -4.8596   10.5923   10.8530 H   0  0  0  0  0  0
  1  2  1  0  0  0
  1  3  1  0  0  0
  2  4  2  0  0  0
  2  7  1  0  0  0
  3  5  2  0  0  0
  3  9  1  0  0  0
  4  6  1  0  0  0
  5  7  1  0  0  0
  6  8  1  0  0  0
  6 10  2  0  0  0
  7 25  1  0  0  0
  8 13  1  0  0  0
  8 26  1  0  0  0
  9 11  2  0  0  0
  9 12  1  0  0  0
 11 15  1  0  0  0
 12 16  2  0  0  0
 13 19  1  0  0  0
 13 20  2  0  0  0
 14 15  2  0  0  0
 14 16  1  0  0  0
 14 17  1  0  0  0
 17 18  1  0  0  0
 18 21  1  0  0  0
 19 23  2  0  0  0
 20 22  1  0  0  0
 22 24  2  0  0  0
 23 24  1  0  0  0
M  END
>  <$CLUSTER>
928

>  <CHROM.0>
2.37426900,177.18877924,73.85499412

>  <CHROM.1>
-3.98914262,6.79321178,13.07648224,1.76067162,-0.13031547,2.54970776

>  <INDEX>
599906

>  <Name>
Pharmeks PHAR059863

>  <RI>
-2.07807e+09

>  <Rbt.Current_Directory>
/aloy/home/acomajuncosa/PocketVec_v2/GitLab_repo

>  <Rbt.Executable>
rbdock ($Id: //depot/dev/client3/rdock/2021.1/src/exe/rbdock.cxx#4 $)

>  <Rbt.Library>
libRbt.so (2021.1, Build901 2021/07/19)

>  <Rbt.Parameter_File>
examples/2_pocketvec/rDock_results/dock.prm

>  <Rbt.Receptor>
examples/2_pocketvec/rDock_results/st_parameters.prm

>  <SCORE>
-7.27114

>  <SCORE.INTER>
-1.75503

>  <SCORE.INTER.CONST>
1

>  <SCORE.INTER.POLAR>
-0.937907

>  <SCORE.INTER.REPUL>
0.475213

>  <SCORE.INTER.ROT>
5

>  <SCORE.INTER.VDW>
-11.3422

>  <SCORE.INTER.norm>
-0.0731261

>  <SCORE.INTRA>
3.42226e-13

>  <SCORE.INTRA.DIHEDRAL>
6.75016e-14

>  <SCORE.INTRA.DIHEDRAL.0>
1.36446

>  <SCORE.INTRA.POLAR>
0

>  <SCORE.INTRA.POLAR.0>
0

>  <SCORE.INTRA.REPUL>
0

>  <SCORE.INTRA.REPUL.0>
0

>  <SCORE.INTRA.VDW>
3.08475e-13

>  <SCORE.INTRA.VDW.0>
0.351085

>  <SCORE.INTRA.norm>
1.42594e-14

>  <SCORE.RESTR>
0

>  <SCORE.RESTR.CAVITY>
0

>  <SCORE.RESTR.norm>
0

>  <SCORE.SYSTEM>
-5.51611

>  <SCORE.SYSTEM.CONST>
0

>  <SCORE.SYSTEM.DIHEDRAL>
1.01705

>  <SCORE.SYSTEM.POLAR>
-1.74552

>  <SCORE.SYSTEM.VDW>
-0.0898569

>  <SCORE.SYSTEM.norm>
-0.229838

>  <SCORE.heavy>
24

>  <SCORE.norm>
-0.302964

$$$$
Lithuania 1050567
  rDOCK(R)          3D
libRbt.so/2021.1/901 2021/07/19
 27 29  0  0  0  0  0  0  0  0999 V2000
   -4.7923    0.7821   13.4125 C   0  0  0  0  0  0
   -4.4049    0.2384   12.2110 N   0  0  0  0  0  0
   -4.5694    2.4916   11.5865 C   0  0  0  0  0  0
   -4.2570    1.1075   11.1515 C   0  0  0  0  0  0
   -5.0007    2.5084   13.2519 S   0  0  0  0  0  0
   -4.5069    3.5381   10.7579 C   0  0  0  0  0  0
   -4.9605    0.0607   14.4683 N   0  0  0  0  0  0
   -4.7945    4.9717   11.0724 C   0  0  0  0  0  0
   -6.6505    2.7699   19.2583 C   0  0  0  0  0  0
   -3.9210    0.8133   10.0086 O   0  0  0  0  0  0
   -6.1539    2.0443   17.9973 C   0  0  0  0  0  0
   -5.4767    5.7815   10.1814 C   0  0  0  0  0  0
   -4.3451    5.4747   12.3078 C   0  0  0  0  0  0
   -7.7921    3.3138   19.2204 O   0  0  0  0  0  0
   -5.3755    0.7243   15.7123 C   0  0  0  0  0  0
   -4.1617   -1.1847   12.0665 C   0  0  0  0  0  0
   -7.1154    1.5441   17.1179 C   0  0  0  0  0  0
   -4.7974    1.8790   17.7137 C   0  0  0  0  0  0
   -5.7136    7.1202   10.5251 C   0  0  0  0  0  0
   -4.5883    6.8078   12.6378 C   0  0  0  0  0  0
   -5.8111    2.7522   20.2052 O   0  5  0  0  0  0
   -4.4029    1.2160   16.5493 C   0  0  0  0  0  0
   -6.7197    0.8825   15.9535 C   0  0  0  0  0  0
   -5.2725    7.6275   11.7485 C   0  0  0  0  0  0
   -4.0528    7.4408   14.1247 Cl  0  0  0  0  0  0
   -5.8806    5.2064    8.9997 O   0  0  0  0  0  0
   -6.5631    6.0329    8.0663 C   0  0  0  0  0  0
  1  2  1  0  0  0
  1  5  1  0  0  0
  1  7  2  0  0  0
  2  4  1  0  0  0
  2 16  1  0  0  0
  3  4  1  0  0  0
  3  5  1  0  0  0
  3  6  2  0  0  0
  4 10  2  0  0  0
  6  8  1  0  0  0
  7 15  1  0  0  0
  8 12  1  0  0  0
  8 13  2  0  0  0
  9 11  1  0  0  0
  9 14  2  0  0  0
  9 21  1  0  0  0
 11 17  1  0  0  0
 11 18  2  0  0  0
 12 19  2  0  0  0
 12 26  1  0  0  0
 13 20  1  0  0  0
 15 22  2  0  0  0
 15 23  1  0  0  0
 17 23  2  0  0  0
 18 22  1  0  0  0
 19 24  1  0  0  0
 20 24  2  0  0  0
 20 25  1  0  0  0
 26 27  1  0  0  0
M  END
>  <$CLUSTER>
102

>  <CHROM.0>
174.50677012,172.47077501,167.92239450

>  <CHROM.1>
-5.19969182,3.29966959,13.64030050,-2.30915287,1.40518357,-0.39680551

>  <INDEX>
222602

>  <Name>
Lithuania 1050567

>  <RI>
-2.07807e+09

>  <Rbt.Current_Directory>
/aloy/home/acomajuncosa/PocketVec_v2/GitLab_repo

>  <Rbt.Executable>
rbdock ($Id: //depot/dev/client3/rdock/2021.1/src/exe/rbdock.cxx#4 $)

>  <Rbt.Library>
libRbt.so (2021.1, Build901 2021/07/19)

>  <Rbt.Parameter_File>
examples/2_pocketvec/rDock_results/dock.prm

>  <Rbt.Receptor>
examples/2_pocketvec/rDock_results/st_parameters.prm

>  <SCORE>
6.37528

>  <SCORE.INTER>
8.32297

>  <SCORE.INTER.CONST>
1

>  <SCORE.INTER.POLAR>
-0.894427

>  <SCORE.INTER.REPUL>
0

>  <SCORE.INTER.ROT>
4

>  <SCORE.INTER.VDW>
1.96402

>  <SCORE.INTER.norm>
0.308258

>  <SCORE.INTRA>
6.78124e-13

>  <SCORE.INTRA.DIHEDRAL>
1.1724e-13

>  <SCORE.INTRA.DIHEDRAL.0>
14.067

>  <SCORE.INTRA.POLAR>
0

>  <SCORE.INTRA.POLAR.0>
0

>  <SCORE.INTRA.REPUL>
0

>  <SCORE.INTRA.REPUL.0>
0

>  <SCORE.INTRA.VDW>
6.19504e-13

>  <SCORE.INTRA.VDW.0>
0.751614

>  <SCORE.INTRA.norm>
2.51157e-14

>  <SCORE.RESTR>
0.369828

>  <SCORE.RESTR.CAVITY>
0.369828

>  <SCORE.RESTR.norm>
0.0136973

>  <SCORE.SYSTEM>
-2.31751

>  <SCORE.SYSTEM.CONST>
0

>  <SCORE.SYSTEM.DIHEDRAL>
1.09156

>  <SCORE.SYSTEM.POLAR>
-0.994987

>  <SCORE.SYSTEM.VDW>
0.519664

>  <SCORE.SYSTEM.norm>
-0.0858339

>  <SCORE.heavy>
27

>  <SCORE.norm>
0.236121

$$$$
Chem T&I AMCLME-04601
  rDOCK(R)          3D
libRbt.so/2021.1/901 2021/07/19
 29 31  0  0  0  0  0  0  0  0999 V2000
   -4.3053   11.1465    9.5009 S   0  0  0  0  0  0
   -4.9083    9.9830   10.5887 N   0  0  0  0  0  0
   -4.3270   10.2189    7.9966 C   0  0  0  0  0  0
   -5.8340    5.5341   13.2755 C   0  0  0  0  0  0
   -5.9590    7.6987   12.0339 N   0  3  0  0  0  0
   -2.9213   11.4276    9.8276 O   0  0  0  0  0  0
   -5.2706   12.2202    9.3726 O   0  0  0  0  0  0
   -4.0472    8.8202   10.9420 C   0  0  0  0  0  0
   -6.3434    9.5955   10.4983 C   0  0  0  0  0  0
   -6.2738    4.8092   14.3459 N   0  0  0  0  0  0
   -6.4530    6.9154   13.2162 C   0  0  0  0  0  0
   -5.0267    5.1286   12.4429 O   0  0  0  0  0  0
   -4.5199    8.1126   12.1889 C   0  0  0  0  0  0
   -6.8296    8.8926   11.7413 C   0  0  0  0  0  0
   -5.4594   10.2563    7.1825 C   0  0  0  0  0  0
   -3.1967    9.4928    7.6208 C   0  0  0  0  0  0
   -5.9470    3.4964   14.7587 C   0  0  0  0  0  0
   -4.3389    8.8095    5.6011 C   0  0  0  0  0  0
   -5.4619    9.5448    5.9828 C   0  0  0  0  0  0
   -3.2090    8.7843    6.4192 C   0  0  0  0  0  0
   -5.3761    0.9022   15.6746 C   0  0  0  0  0  0
   -4.3565    7.9448    4.1335 Cl  0  0  0  0  0  0
   -5.0467    2.6831   14.0641 C   0  0  0  0  0  0
   -6.5579    2.9933   15.9178 C   0  0  0  0  0  0
   -6.2741    1.7044   16.3726 C   0  0  0  0  0  0
   -4.7649    1.3916   14.5222 C   0  0  0  0  0  0
   -5.0740   -0.4757   16.1616 C   0  0  0  0  0  0
   -6.0148    7.0762   11.2404 H   0  0  0  0  0  0
   -6.9386    5.2871   14.9375 H   0  0  0  0  0  0
  1  2  1  0  0  0
  1  3  1  0  0  0
  1  6  2  0  0  0
  1  7  2  0  0  0
  2  8  1  0  0  0
  2  9  1  0  0  0
  3 15  2  0  0  0
  3 16  1  0  0  0
  4 10  1  0  0  0
  4 11  1  0  0  0
  4 12  2  0  0  0
  5 11  1  0  0  0
  5 13  1  0  0  0
  5 14  1  0  0  0
  5 28  1  0  0  0
  8 13  1  0  0  0
  9 14  1  0  0  0
 10 17  1  0  0  0
 10 29  1  0  0  0
 15 19  1  0  0  0
 16 20  2  0  0  0
 17 23  1  0  0  0
 17 24  2  0  0  0
 18 19  2  0  0  0
 18 20  1  0  0  0
 18 22  1  0  0  0
 21 25  2  0  0  0
 21 26  1  0  0  0
 21 27  1  0  0  0
 23 26  2  0  0  0
 24 25  1  0  0  0
M  END
>  <$CLUSTER>
776

>  <CHROM.0>
2.18875337,172.09625840,73.90959597

>  <CHROM.1>
-5.03615200,7.26642940,10.76346096,0.86289571,1.39326386,-0.11528085

>  <INDEX>
508152

>  <Name>
Chem T&I AMCLME-04601

>  <RI>
-2.07807e+09

>  <Rbt.Current_Directory>
/aloy/home/acomajuncosa/PocketVec_v2/GitLab_repo

>  <Rbt.Executable>
rbdock ($Id: //depot/dev/client3/rdock/2021.1/src/exe/rbdock.cxx#4 $)

>  <Rbt.Library>
libRbt.so (2021.1, Build901 2021/07/19)

>  <Rbt.Parameter_File>
examples/2_pocketvec/rDock_results/dock.prm

>  <Rbt.Receptor>
examples/2_pocketvec/rDock_results/st_parameters.prm

>  <SCORE>
-10.1752

>  <SCORE.INTER>
-4.56507

>  <SCORE.INTER.CONST>
1

>  <SCORE.INTER.POLAR>
0

>  <SCORE.INTER.REPUL>
0

>  <SCORE.INTER.ROT>
5

>  <SCORE.INTER.VDW>
-14.9651

>  <SCORE.INTER.norm>
-0.169077

>  <SCORE.INTRA>
1.30895e-12

>  <SCORE.INTRA.DIHEDRAL>
2.95319e-13

>  <SCORE.INTRA.DIHEDRAL.0>
3.25088

>  <SCORE.INTRA.POLAR>
0

>  <SCORE.INTRA.POLAR.0>
0

>  <SCORE.INTRA.REPUL>
0

>  <SCORE.INTRA.REPUL.0>
0

>  <SCORE.INTRA.VDW>
1.16129e-12

>  <SCORE.INTRA.VDW.0>
-2.10864

>  <SCORE.INTRA.norm>
4.84797e-14

>  <SCORE.RESTR>
0

>  <SCORE.RESTR.CAVITY>
0

>  <SCORE.RESTR.norm>
0

>  <SCORE.SYSTEM>
-5.61017

>  <SCORE.SYSTEM.CONST>
0

>  <SCORE.SYSTEM.DIHEDRAL>
1.28431

>  <SCORE.SYSTEM.POLAR>
-1.74597

>  <SCORE.SYSTEM.VDW>
-0.316026

>  <SCORE.SYSTEM.norm>
-0.207784

>  <SCORE.heavy>
27

>  <SCORE.norm>
-0.376861

$$$$
InterBioScreen STOCK4S-52524
  rDOCK(R)          3D
libRbt.so/2021.1/901 2021/07/19
 32 35  0  0  0  0  0  0  0  0999 V2000
    1.7116    4.0170   10.0475 C   0  0  0  0  0  0
    1.6340    4.0861   11.3843 C   0  0  0  0  0  0
   -0.5906    3.0502   11.3435 C   0  0  0  0  0  0
    2.8997    4.5216    9.4210 N   0  0  0  0  0  0
    3.7959    5.0683   11.5099 N   0  0  0  0  0  0
    0.6849    3.4935    9.2957 N   0  0  0  0  0  0
    3.8419    5.0014   10.1588 C   0  0  0  0  0  0
   -0.4785    3.0199    9.8687 C   0  0  0  0  0  0
    2.7234    4.6232   12.2120 C   0  0  0  0  0  0
    0.4399    3.5791   12.0465 C   0  0  0  0  0  0
   -1.7579    2.5286   12.1414 C   0  0  0  0  0  0
   -2.3067    3.3829   13.0504 N   0  0  0  0  0  0
    5.0460    5.4983    9.4106 C   0  0  0  0  0  0
    4.9132    5.6186   12.1908 C   0  0  0  0  0  0
   -1.4456    2.5644    9.1342 N   0  0  0  0  0  0
   -3.4466    2.9855   13.8837 C   0  0  0  0  0  0
   -1.8878    4.7568   13.3435 C   0  0  0  0  0  0
    2.6626    4.6754   13.4388 O   0  0  0  0  0  0
   -2.1601    1.3786   11.9416 O   0  0  0  0  0  0
    5.9987    6.0700   11.5502 C   0  0  0  0  0  0
    6.0619    6.0051   10.1136 C   0  0  0  0  0  0
    0.8123    3.4694    7.7971 C   0  0  0  0  0  0
   -4.6531    3.9088   13.6628 C   0  0  0  0  0  0
   -3.0269    5.7566   13.0997 C   0  0  0  0  0  0
   -4.2662    5.3708   13.9174 C   0  0  0  0  0  0
    5.0246    5.3909    7.9394 C   0  0  0  0  0  0
   -5.8231    3.4945   14.5543 C   0  0  0  0  0  0
   -2.5807    7.1798   13.4302 C   0  0  0  0  0  0
    0.2771    4.7541    7.1836 C   0  0  0  0  0  0
    0.3957    4.7243    5.6698 C   0  0  0  0  0  0
   -0.1358    6.0024    5.0433 C   0  0  0  0  0  0
   -1.3536    2.5527    8.1283 H   0  0  0  0  0  0
  1  2  2  0  0  0
  1  4  1  0  0  0
  1  6  1  0  0  0
  2  9  1  0  0  0
  2 10  1  0  0  0
  3  8  1  0  0  0
  3 10  2  0  0  0
  3 11  1  0  0  0
  4  7  2  0  0  0
  5  7  1  0  0  0
  5  9  1  0  0  0
  5 14  1  0  0  0
  6  8  1  0  0  0
  6 22  1  0  0  0
  7 13  1  0  0  0
  8 15  2  0  0  0
  9 18  2  0  0  0
 11 12  1  0  0  0
 11 19  2  0  0  0
 12 16  1  0  0  0
 12 17  1  0  0  0
 13 21  2  0  0  0
 13 26  1  0  0  0
 14 20  2  0  0  0
 15 32  1  0  0  0
 16 23  1  0  0  0
 17 24  1  0  0  0
 20 21  1  0  0  0
 22 29  1  0  0  0
 23 25  1  0  0  0
 23 27  1  0  0  0
 24 25  1  0  0  0
 24 28  1  0  0  0
 29 30  1  0  0  0
 30 31  1  0  0  0
M  END
>  <$CLUSTER>
662

>  <CHROM.0>
2.14009363,170.85164340,76.41497515

>  <CHROM.1>
0.38721869,4.38474014,10.95229381,0.47332132,-0.21041750,-1.64705696

>  <INDEX>
356790

>  <Name>
InterBioScreen STOCK4S-52524

>  <RI>
-2.07807e+09

>  <Rbt.Current_Directory>
/aloy/home/acomajuncosa/PocketVec_v2/GitLab_repo

>  <Rbt.Executable>
rbdock ($Id: //depot/dev/client3/rdock/2021.1/src/exe/rbdock.cxx#4 $)

>  <Rbt.Library>
libRbt.so (2021.1, Build901 2021/07/19)

>  <Rbt.Parameter_File>
examples/2_pocketvec/rDock_results/dock.prm

>  <Rbt.Receptor>
examples/2_pocketvec/rDock_results/st_parameters.prm

>  <SCORE>
-13.9933

>  <SCORE.INTER>
-8.41367

>  <SCORE.INTER.CONST>
1

>  <SCORE.INTER.POLAR>
0

>  <SCORE.INTER.REPUL>
0

>  <SCORE.INTER.ROT>
4

>  <SCORE.INTER.VDW>
-17.8137

>  <SCORE.INTER.norm>
-0.271409

>  <SCORE.INTRA>
-1.03073e-12

>  <SCORE.INTRA.DIHEDRAL>
9.9476e-14

>  <SCORE.INTRA.DIHEDRAL.0>
10.4972

>  <SCORE.INTRA.POLAR>
0

>  <SCORE.INTRA.POLAR.0>
0

>  <SCORE.INTRA.REPUL>
0

>  <SCORE.INTRA.REPUL.0>
0

>  <SCORE.INTRA.VDW>
-1.08047e-12

>  <SCORE.INTRA.VDW.0>
-1.12849

>  <SCORE.INTRA.norm>
-3.32494e-14

>  <SCORE.RESTR>
0

>  <SCORE.RESTR.CAVITY>
0

>  <SCORE.RESTR.norm>
0

>  <SCORE.SYSTEM>
-5.57967

>  <SCORE.SYSTEM.CONST>
0

>  <SCORE.SYSTEM.DIHEDRAL>
1.71821

>  <SCORE.SYSTEM.POLAR>
-1.76624

>  <SCORE.SYSTEM.VDW>
-0.433548

>  <SCORE.SYSTEM.norm>
-0.179989

>  <SCORE.heavy>
31

>  <SCORE.norm>
-0.451398

$$$$
Cerep CER0136666
  rDOCK(R)          3D
libRbt.so/2021.1/901 2021/07/19
 29 32  0  0  0  0  0  0  0  0999 V2000
   -2.0843    9.1167   12.5352 N   0  0  0  0  0  0
   -0.9069   11.7288   13.3477 N   0  0  0  0  0  0
   -2.1495    7.7842   12.3660 C   0  0  0  0  0  0
   -0.7781   13.0493   13.4107 C   0  0  0  0  0  0
   -3.6969    4.7944   14.3040 C   0  0  0  0  0  0
   -5.5970    1.5980   16.7802 C   0  0  0  0  0  0
   -3.7542    3.4358   14.1103 N   0  0  0  0  0  0
   -0.0974   13.6753   12.4090 N   0  0  0  0  0  0
   -1.3956   10.0041   11.5790 C   0  0  0  0  0  0
   -2.6440    9.9289   13.6329 C   0  0  0  0  0  0
   -0.3472   10.9167   12.2500 C   0  0  0  0  0  0
   -1.5956   10.8414   14.3039 C   0  0  0  0  0  0
   -4.3428    2.4147   14.8701 C   0  0  0  0  0  0
   -5.0297    2.6570   16.0650 C   0  0  0  0  0  0
   -5.4837    0.2905   16.3132 C   0  0  0  0  0  0
   -1.6496    7.1811   11.4119 O   0  0  0  0  0  0
   -2.8872    7.0039   13.4255 C   0  0  0  0  0  0
   -4.2098    5.3596   15.2766 O   0  0  0  0  0  0
   -4.8026    0.0375   15.1274 C   0  0  0  0  0  0
   -2.9541    5.5296   13.2271 C   0  0  0  0  0  0
   -4.2353    1.0937   14.4099 C   0  0  0  0  0  0
   -6.3908    1.6496   18.0330 C   0  0  0  0  0  0
   -1.3223   13.7945   14.4658 C   0  0  0  0  0  0
   -6.3322    0.1852   18.4757 C   0  0  0  0  0  0
    0.0411   15.0258   12.4639 C   0  0  0  0  0  0
   -6.1869   -0.6540   17.2031 C   0  0  0  0  0  0
   -1.1670   15.1814   14.4989 C   0  0  0  0  0  0
   -0.4714   15.8161   13.4783 C   0  0  0  0  0  0
   -3.2904    3.1154   13.2718 H   0  0  0  0  0  0
  1  3  1  0  0  0
  1  9  1  0  0  0
  1 10  1  0  0  0
  2  4  1  0  0  0
  2 11  1  0  0  0
  2 12  1  0  0  0
  3 16  2  0  0  0
  3 17  1  0  0  0
  4  8  2  0  0  0
  4 23  1  0  0  0
  5  7  1  0  0  0
  5 18  2  0  0  0
  5 20  1  0  0  0
  6 14  2  0  0  0
  6 15  1  0  0  0
  6 22  1  0  0  0
  7 13  1  0  0  0
  7 29  1  0  0  0
  8 25  1  0  0  0
  9 11  1  0  0  0
 10 12  1  0  0  0
 13 14  1  0  0  0
 13 21  2  0  0  0
 15 19  2  0  0  0
 15 26  1  0  0  0
 17 20  1  0  0  0
 19 21  1  0  0  0
 22 24  1  0  0  0
 23 27  2  0  0  0
 24 26  1  0  0  0
 25 28  2  0  0  0
 27 28  1  0  0  0
M  END
>  <$CLUSTER>
986

>  <CHROM.0>
178.26789436,171.42815313,74.73213668

>  <CHROM.1>
-2.93277814,7.13439122,14.25131585,-0.75121801,-1.08308469,-2.64177904

>  <INDEX>
189598

>  <Name>
Cerep CER0136666

>  <RI>
-2.07807e+09

>  <Rbt.Current_Directory>
/aloy/home/acomajuncosa/PocketVec_v2/GitLab_repo

>  <Rbt.Executable>
rbdock ($Id: //depot/dev/client3/rdock/2021.1/src/exe/rbdock.cxx#4 $)

>  <Rbt.Library>
libRbt.so (2021.1, Build901 2021/07/19)

>  <Rbt.Parameter_File>
examples/2_pocketvec/rDock_results/dock.prm

>  <Rbt.Receptor>
examples/2_pocketvec/rDock_results/st_parameters.prm

>  <SCORE>
-10.2498

>  <SCORE.INTER>
-5.04302

>  <SCORE.INTER.CONST>
1

>  <SCORE.INTER.POLAR>
0

>  <SCORE.INTER.REPUL>
0

>  <SCORE.INTER.ROT>
5

>  <SCORE.INTER.VDW>
-15.443

>  <SCORE.INTER.norm>
-0.180108

>  <SCORE.INTRA>
7.1898e-13

>  <SCORE.INTRA.DIHEDRAL>
7.10543e-15

>  <SCORE.INTRA.DIHEDRAL.0>
2.19206

>  <SCORE.INTRA.POLAR>
0

>  <SCORE.INTRA.POLAR.0>
0

>  <SCORE.INTRA.REPUL>
0

>  <SCORE.INTRA.REPUL.0>
0

>  <SCORE.INTRA.VDW>
7.15428e-13

>  <SCORE.INTRA.VDW.0>
0.9009

>  <SCORE.INTRA.norm>
2.56779e-14

>  <SCORE.RESTR>
0.234101

>  <SCORE.RESTR.CAVITY>
0.234101

>  <SCORE.RESTR.norm>
0.00836077

>  <SCORE.SYSTEM>
-5.44092

>  <SCORE.SYSTEM.CONST>
0

>  <SCORE.SYSTEM.DIHEDRAL>
1.4454

>  <SCORE.SYSTEM.POLAR>
-1.7527

>  <SCORE.SYSTEM.VDW>
-0.204453

>  <SCORE.SYSTEM.norm>
-0.194319

>  <SCORE.heavy>
28

>  <SCORE.norm>
-0.366066

$$$$
Asinex BAS 02903336
  rDOCK(R)          3D
libRbt.so/2021.1/901 2021/07/19
 31 34  0  0  0  0  0  0  0  0999 V2000
   -4.8747    2.2815   11.8425 S   0  0  0  0  0  0
   -4.0971    2.9504   13.2249 N   0  0  0  0  0  0
   -2.6240    3.1909   13.1581 C   0  0  0  0  0  0
   -2.2543    4.4470   13.9320 C   0  0  0  0  0  0
   -1.1683    8.6375   15.0361 C   0  0  0  0  0  0
   -4.4374    3.0029   10.6616 O   0  0  0  0  0  0
   -6.2907    2.0955   12.0999 O   0  0  0  0  0  0
   -4.1265    0.6660   11.7674 C   0  0  0  0  0  0
   -4.6657    2.6005   14.5077 C   0  0  0  0  0  0
   -1.5053    7.3060   14.7764 C   0  0  0  0  0  0
   -2.0738    5.5573   13.1619 N   0  0  0  0  0  0
   -1.0605    9.5543   13.9923 C   0  0  0  0  0  0
   -0.9189    9.1937   16.2334 O   0  0  0  0  0  0
   -0.7331   10.7774   14.4184 O   0  0  0  0  0  0
   -1.7356    6.8787   13.4646 C   0  0  0  0  0  0
   -0.6400   10.5591   15.8442 C   0  0  0  0  0  0
   -2.1224    4.4820   15.1578 O   0  0  0  0  0  0
   -1.2887    9.1397   12.6843 C   0  0  0  0  0  0
   -5.7723    3.3233   14.9681 C   0  0  0  0  0  0
   -4.1867    1.5173   15.2526 C   0  0  0  0  0  0
   -1.6242    7.8101   12.4218 C   0  0  0  0  0  0
   -5.8827    1.9172   16.9295 C   0  0  0  0  0  0
   -6.3738    2.9857   16.1799 C   0  0  0  0  0  0
   -4.7926    1.1829   16.4645 C   0  0  0  0  0  0
   -6.6245    1.5211   18.4104 Cl  0  0  0  0  0  0
   -2.9426    0.4683   11.0428 C   0  0  0  0  0  0
   -4.7492   -0.4235   12.3975 C   0  0  0  0  0  0
   -4.1796   -1.6943   12.3141 C   0  0  0  0  0  0
   -2.3793   -0.8064   10.9626 C   0  0  0  0  0  0
   -2.9973   -1.8851   11.5976 C   0  0  0  0  0  0
   -2.2124    5.3914   12.1753 H   0  0  0  0  0  0
  1  2  1  0  0  0
  1  6  2  0  0  0
  1  7  2  0  0  0
  1  8  1  0  0  0
  2  3  1  0  0  0
  2  9  1  0  0  0
  3  4  1  0  0  0
  4 11  1  0  0  0
  4 17  2  0  0  0
  5 10  2  0  0  0
  5 12  1  0  0  0
  5 13  1  0  0  0
  8 26  1  0  0  0
  8 27  2  0  0  0
  9 19  2  0  0  0
  9 20  1  0  0  0
 10 15  1  0  0  0
 11 15  1  0  0  0
 11 31  1  0  0  0
 12 14  1  0  0  0
 12 18  2  0  0  0
 13 16  1  0  0  0
 14 16  1  0  0  0
 15 21  2  0  0  0
 18 21  1  0  0  0
 19 23  1  0  0  0
 20 24  2  0  0  0
 22 23  2  0  0  0
 22 24  1  0  0  0
 22 25  1  0  0  0
 26 29  2  0  0  0
 27 28  1  0  0  0
 28 30  2  0  0  0
 29 30  1  0  0  0
M  END
>  <$CLUSTER>
94

>  <CHROM.0>
167.20121027,170.60328997,73.76377467

>  <CHROM.1>
-3.51924988,3.84523849,13.96224852,-2.35646989,0.98520369,0.81565226

>  <INDEX>
178545

>  <Name>
Asinex BAS 02903336

>  <RI>
-2.07807e+09

>  <Rbt.Current_Directory>
/aloy/home/acomajuncosa/PocketVec_v2/GitLab_repo

>  <Rbt.Executable>
rbdock ($Id: //depot/dev/client3/rdock/2021.1/src/exe/rbdock.cxx#4 $)

>  <Rbt.Library>
libRbt.so (2021.1, Build901 2021/07/19)

>  <Rbt.Parameter_File>
examples/2_pocketvec/rDock_results/dock.prm

>  <Rbt.Receptor>
examples/2_pocketvec/rDock_results/st_parameters.prm

>  <SCORE>
-18.1821

>  <SCORE.INTER>
-12.7345

>  <SCORE.INTER.CONST>
1

>  <SCORE.INTER.POLAR>
-0.588089

>  <SCORE.INTER.REPUL>
0

>  <SCORE.INTER.ROT>
6

>  <SCORE.INTER.VDW>
-22.135

>  <SCORE.INTER.norm>
-0.424482

>  <SCORE.INTRA>
-5.4623e-14

>  <SCORE.INTRA.DIHEDRAL>
-5.24913e-13

>  <SCORE.INTRA.DIHEDRAL.0>
4.36343

>  <SCORE.INTRA.POLAR>
0

>  <SCORE.INTRA.POLAR.0>
0

>  <SCORE.INTRA.REPUL>
0

>  <SCORE.INTRA.REPUL.0>
0

>  <SCORE.INTRA.VDW>
2.07834e-13

>  <SCORE.INTRA.VDW.0>
-3.95056

>  <SCORE.INTRA.norm>
-1.82077e-15

>  <SCORE.RESTR>
0

>  <SCORE.RESTR.CAVITY>
0

>  <SCORE.RESTR.norm>
0

>  <SCORE.SYSTEM>
-5.44763

>  <SCORE.SYSTEM.CONST>
0

>  <SCORE.SYSTEM.DIHEDRAL>
1.6415

>  <SCORE.SYSTEM.POLAR>
-1.74477

>  <SCORE.SYSTEM.VDW>
-0.336159

>  <SCORE.SYSTEM.norm>
-0.181588

>  <SCORE.heavy>
30

>  <SCORE.norm>
-0.60607

$$$$
Life Chemicals F0417-0114
  rDOCK(R)          3D
libRbt.so/2021.1/901 2021/07/19
 29 31  0  0  0  0  0  0  0  0999 V2000
    0.2953    4.5409   12.4061 C   0  0  0  0  0  0
    0.5836    3.0326   11.6564 S   0  0  0  0  0  0
    1.2964    5.4697   12.6226 N   0  0  0  0  0  0
   -1.0843    2.6995   11.8515 C   0  0  0  0  0  0
   -0.9607    4.7339   12.7567 N   0  0  0  0  0  0
   -1.7683    3.6595   12.4332 N   0  0  0  0  0  0
    2.6364    5.3396   12.2837 C   0  0  0  0  0  0
   -4.2315    2.4869   10.9229 C   0  0  0  0  0  0
    3.4151    6.5695   12.6841 C   0  0  0  0  0  0
   -1.8092    1.1951   11.3147 S   0  0  0  0  0  0
   -4.2468    3.7293   11.4608 N   0  0  0  0  0  0
    3.1980    4.3966   11.7352 O   0  0  0  0  0  0
   -4.6686    2.2417    9.8035 O   0  0  0  0  0  0
    4.6228    6.8086   11.9546 C   0  0  0  0  0  0
    3.0815    7.4095   13.7190 C   0  0  0  0  0  0
   -3.5356    1.4368   11.7850 C   0  0  0  0  0  0
   -4.7670    4.9483   11.0034 C   0  0  0  0  0  0
    5.0463    8.7624   13.3133 C   0  0  0  0  0  0
    3.8815    8.5111   14.0353 C   0  0  0  0  0  0
    5.4179    7.9112   12.2741 C   0  0  0  0  0  0
    6.0045   10.1117   13.7099 Cl  0  0  0  0  0  0
   -5.7734    7.4323   10.1570 C   0  0  0  0  0  0
   -5.3891    5.0728    9.7571 C   0  0  0  0  0  0
   -4.6568    6.0849   11.8200 C   0  0  0  0  0  0
   -5.8884    6.3109    9.3374 C   0  0  0  0  0  0
   -5.1571    7.3187   11.3992 C   0  0  0  0  0  0
   -6.3082    8.7504    9.7047 C   0  0  0  0  0  0
    1.0247    6.3319   13.0741 H   0  0  0  0  0  0
   -3.7975    3.7891   12.3634 H   0  0  0  0  0  0
  1  2  1  0  0  0
  1  3  1  0  0  0
  1  5  2  0  0  0
  2  4  1  0  0  0
  3  7  1  0  0  0
  3 28  1  0  0  0
  4  6  2  0  0  0
  4 10  1  0  0  0
  5  6  1  0  0  0
  7  9  1  0  0  0
  7 12  2  0  0  0
  8 11  1  0  0  0
  8 13  2  0  0  0
  8 16  1  0  0  0
  9 14  1  0  0  0
  9 15  2  0  0  0
 10 16  1  0  0  0
 11 17  1  0  0  0
 11 29  1  0  0  0
 14 20  2  0  0  0
 15 19  1  0  0  0
 17 23  2  0  0  0
 17 24  1  0  0  0
 18 19  2  0  0  0
 18 20  1  0  0  0
 18 21  1  0  0  0
 22 25  2  0  0  0
 22 26  1  0  0  0
 22 27  1  0  0  0
 23 25  1  0  0  0
 24 26  2  0  0  0
M  END
>  <$CLUSTER>
406

>  <CHROM.0>
175.21346466,172.63206504,73.59212675

>  <CHROM.1>
-0.43816265,5.35669084,11.83597627,-0.38931231,0.24967956,-3.12242236

>  <INDEX>
270131

>  <Name>
Life Chemicals F0417-0114

>  <RI>
-2.07807e+09

>  <Rbt.Current_Directory>
/aloy/home/acomajuncosa/PocketVec_v2/GitLab_repo

>  <Rbt.Executable>
rbdock ($Id: //depot/dev/client3/rdock/2021.1/src/exe/rbdock.cxx#4 $)

>  <Rbt.Library>
libRbt.so (2021.1, Build901 2021/07/19)

>  <Rbt.Parameter_File>
examples/2_pocketvec/rDock_results/dock.prm

>  <Rbt.Receptor>
examples/2_pocketvec/rDock_results/st_parameters.prm

>  <SCORE>
-16.1061

>  <SCORE.INTER>
-10.6677

>  <SCORE.INTER.CONST>
1

>  <SCORE.INTER.POLAR>
-1.73191

>  <SCORE.INTER.REPUL>
0

>  <SCORE.INTER.ROT>
6

>  <SCORE.INTER.VDW>
-16.1792

>  <SCORE.INTER.norm>
-0.395098

>  <SCORE.INTRA>
-1.64535e-14

>  <SCORE.INTRA.DIHEDRAL>
2.79776e-13

>  <SCORE.INTRA.DIHEDRAL.0>
3.85604

>  <SCORE.INTRA.POLAR>
1.96509e-14

>  <SCORE.INTRA.POLAR.0>
-0.361355

>  <SCORE.INTRA.REPUL>
0

>  <SCORE.INTRA.REPUL.0>
0

>  <SCORE.INTRA.VDW>
-2.23155e-13

>  <SCORE.INTRA.VDW.0>
-1.51264

>  <SCORE.INTRA.norm>
-6.09389e-16

>  <SCORE.RESTR>
0.0155995

>  <SCORE.RESTR.CAVITY>
0.0155995

>  <SCORE.RESTR.norm>
0.000577757

>  <SCORE.SYSTEM>
-5.45408

>  <SCORE.SYSTEM.CONST>
0

>  <SCORE.SYSTEM.DIHEDRAL>
1.24486

>  <SCORE.SYSTEM.POLAR>
-1.74336

>  <SCORE.SYSTEM.VDW>
-0.149094

>  <SCORE.SYSTEM.norm>
-0.202003

>  <SCORE.heavy>
27

>  <SCORE.norm>
-0.596524

$$$$
Life Chemicals F1359-1195
  rDOCK(R)          3D
libRbt.so/2021.1/901 2021/07/19
 29 31  0  0  0  0  0  0  0  0999 V2000
   -2.5046    5.4025   12.7632 C   0  0  0  0  0  0
   -1.8105    6.2744   12.1046 N   0  0  0  0  0  0
   -5.5190    0.9372   16.4784 S   0  0  0  0  0  0
   -3.8505    5.1252   12.5699 N   0  0  0  0  0  0
   -1.8454    4.3669   14.0781 S   0  0  0  0  0  0
   -3.4312    3.6130   14.3180 C   0  0  0  0  0  0
   -4.3716    4.1384   13.4339 C   0  0  0  0  0  0
   -0.3890    6.4548   12.4265 C   0  0  0  0  0  0
   -5.0630    2.1565   15.2913 C   0  0  0  0  0  0
   -3.7521    2.6287   15.2474 C   0  0  0  0  0  0
    0.2533    7.4672   11.6036 C   0  0  0  0  0  0
   -5.6843    3.6611   13.4863 C   0  0  0  0  0  0
   -4.5951    1.0241   17.5972 O   0  0  0  0  0  0
   -6.9502    1.0143   16.7105 O   0  0  0  0  0  0
   -5.2110   -0.5031   15.6821 N   0  0  0  0  0  0
    0.1261    5.7867   13.3049 O   0  0  0  0  0  0
   -6.0251    2.6707   14.4151 C   0  0  0  0  0  0
    1.6662    7.3202   11.4819 C   0  0  0  0  0  0
   -4.6722    5.8070   11.5768 C   0  0  0  0  0  0
    2.3952    8.2553   10.7437 C   0  0  0  0  0  0
    4.0804    8.0896   10.5652 Cl  0  0  0  0  0  0
   -0.3684    8.5481   11.0287 C   0  0  0  0  0  0
    0.3652    9.4813   10.2928 C   0  0  0  0  0  0
   -6.1914    7.6498   11.1737 O   0  0  0  0  0  0
    1.7439    9.3343   10.1491 C   0  0  0  0  0  0
   -5.3791    7.0044   12.1940 C   0  0  0  0  0  0
   -6.8834    8.7860   11.7032 C   0  0  0  0  0  0
   -4.2200   -0.5853   15.5057 H   0  0  0  0  0  0
   -5.7106   -0.5161   14.8043 H   0  0  0  0  0  0
  1  2  2  0  0  0
  1  4  1  0  0  0
  1  5  1  0  0  0
  2  8  1  0  0  0
  3  9  1  0  0  0
  3 13  2  0  0  0
  3 14  2  0  0  0
  3 15  1  0  0  0
  4  7  1  0  0  0
  4 19  1  0  0  0
  5  6  1  0  0  0
  6  7  1  0  0  0
  6 10  2  0  0  0
  7 12  2  0  0  0
  8 11  1  0  0  0
  8 16  2  0  0  0
  9 10  1  0  0  0
  9 17  2  0  0  0
 11 18  2  0  0  0
 11 22  1  0  0  0
 12 17  1  0  0  0
 15 28  1  0  0  0
 15 29  1  0  0  0
 18 20  1  0  0  0
 19 26  1  0  0  0
 20 21  1  0  0  0
 20 25  2  0  0  0
 22 23  2  0  0  0
 23 25  1  0  0  0
 24 26  1  0  0  0
 24 27  1  0  0  0
M  END
>  <$CLUSTER>
444

>  <CHROM.0>
2.44951974,172.77703007,73.08959415

>  <CHROM.1>
-2.56956579,5.13311082,13.16928820,0.84307775,0.01600554,-0.62466896

>  <INDEX>
292670

>  <Name>
Life Chemicals F1359-1195

>  <RI>
-2.07807e+09

>  <Rbt.Current_Directory>
/aloy/home/acomajuncosa/PocketVec_v2/GitLab_repo

>  <Rbt.Executable>
rbdock ($Id: //depot/dev/client3/rdock/2021.1/src/exe/rbdock.cxx#4 $)

>  <Rbt.Library>
libRbt.so (2021.1, Build901 2021/07/19)

>  <Rbt.Parameter_File>
examples/2_pocketvec/rDock_results/dock.prm

>  <Rbt.Receptor>
examples/2_pocketvec/rDock_results/st_parameters.prm

>  <SCORE>
-12.6938

>  <SCORE.INTER>
-7.09232

>  <SCORE.INTER.CONST>
1

>  <SCORE.INTER.POLAR>
-1.87568

>  <SCORE.INTER.REPUL>
0.466923

>  <SCORE.INTER.ROT>
7

>  <SCORE.INTER.VDW>
-15.4496

>  <SCORE.INTER.norm>
-0.262678

>  <SCORE.INTRA>
2.39297e-12

>  <SCORE.INTRA.DIHEDRAL>
7.45182e-13

>  <SCORE.INTRA.DIHEDRAL.0>
6.22325

>  <SCORE.INTRA.POLAR>
0

>  <SCORE.INTRA.POLAR.0>
0

>  <SCORE.INTRA.REPUL>
0

>  <SCORE.INTRA.REPUL.0>
0

>  <SCORE.INTRA.VDW>
2.02038e-12

>  <SCORE.INTRA.VDW.0>
0.7811

>  <SCORE.INTRA.norm>
8.86287e-14

>  <SCORE.RESTR>
0

>  <SCORE.RESTR.CAVITY>
0

>  <SCORE.RESTR.norm>
0

>  <SCORE.SYSTEM>
-5.60151

>  <SCORE.SYSTEM.CONST>
0

>  <SCORE.SYSTEM.DIHEDRAL>
1.1371

>  <SCORE.SYSTEM.POLAR>
-1.7392

>  <SCORE.SYSTEM.VDW>
-0.256774

>  <SCORE.SYSTEM.norm>
-0.207464

>  <SCORE.heavy>
27

>  <SCORE.norm>
-0.470142

$$$$
Pyxis Discovery PYX 00003417
  rDOCK(R)          3D
libRbt.so/2021.1/901 2021/07/19
 35 39  0  0  0  0  0  0  0  0999 V2000
   -2.4220    1.9014   11.4899 C   0  0  0  0  0  0
   -2.6872    3.0939   12.1129 C   0  0  0  0  0  0
   -3.3519    0.9933   11.9559 N   0  0  0  0  0  0
   -1.4321    1.7341   10.5465 N   0  0  0  0  0  0
   -4.2761    1.6249   12.7385 N   0  0  0  0  0  0
   -3.8397    2.8859   12.8940 C   0  0  0  0  0  0
   -1.8633    4.2117   11.8262 C   0  0  0  0  0  0
   -0.8569    4.1048   10.9464 C   0  0  0  0  0  0
   -0.5993    2.8105   10.2409 C   0  0  0  0  0  0
   -4.5619    3.8217   13.7494 C   0  0  0  0  0  0
   -3.4606   -0.4098   11.7487 C   0  0  0  0  0  0
    0.3143    2.7372    9.4234 O   0  0  0  0  0  0
   -5.9629    3.8729   13.7166 C   0  0  0  0  0  0
   -3.8708    4.6669   14.6286 C   0  0  0  0  0  0
    1.4316    5.1444   11.0487 N   0  3  0  0  0  0
    0.0253    5.2987   10.5914 C   0  0  0  0  0  0
   -5.9618    5.6032   15.4055 C   0  0  0  0  0  0
   -4.5700    5.5548   15.4506 C   0  0  0  0  0  0
   -6.6582    4.7626   14.5397 C   0  0  0  0  0  0
   -6.5530    6.4786   16.2183 F   0  0  0  0  0  0
    3.7115    5.9300   11.2742 C   0  0  0  0  0  0
    2.3316    6.2525   10.7405 C   0  0  0  0  0  0
   -2.3677   -1.1810   11.3361 C   0  0  0  0  0  0
   -4.6860   -1.0457   12.0065 C   0  0  0  0  0  0
    4.0957    6.3259   12.5693 C   0  0  0  0  0  0
    4.6630    5.2758   10.4691 C   0  0  0  0  0  0
   -2.5106   -2.5600   11.1514 C   0  0  0  0  0  0
   -4.8215   -2.4230   11.8168 C   0  0  0  0  0  0
    5.3735    6.0404   13.0557 C   0  0  0  0  0  0
    5.9393    4.9917   10.9577 C   0  0  0  0  0  0
   -3.7355   -3.1798   11.3850 C   0  0  0  0  0  0
    6.2944    5.3747   12.2494 C   0  0  0  0  0  0
   -1.3108    0.8450   10.0829 H   0  0  0  0  0  0
    1.8074    4.3121   10.6167 H   0  0  0  0  0  0
    1.4192    5.0267   12.0513 H   0  0  0  0  0  0
  1  2  2  0  0  0
  1  3  1  0  0  0
  1  4  1  0  0  0
  2  6  1  0  0  0
  2  7  1  0  0  0
  3  5  1  0  0  0
  3 11  1  0  0  0
  4  9  1  0  0  0
  4 33  1  0  0  0
  5  6  2  0  0  0
  6 10  1  0  0  0
  7  8  2  0  0  0
  8  9  1  0  0  0
  8 16  1  0  0  0
  9 12  2  0  0  0
 10 13  1  0  0  0
 10 14  2  0  0  0
 11 23  2  0  0  0
 11 24  1  0  0  0
 13 19  2  0  0  0
 14 18  1  0  0  0
 15 16  1  0  0  0
 15 22  1  0  0  0
 15 34  1  0  0  0
 15 35  1  0  0  0
 17 18  2  0  0  0
 17 19  1  0  0  0
 17 20  1  0  0  0
 21 22  1  0  0  0
 21 25  2  0  0  0
 21 26  1  0  0  0
 23 27  1  0  0  0
 24 28  2  0  0  0
 25 29  1  0  0  0
 26 30  2  0  0  0
 27 31  2  0  0  0
 28 31  1  0  0  0
 29 32  2  0  0  0
 30 32  1  0  0  0
M  END
>  <$CLUSTER>
274

>  <CHROM.0>
149.55151749,170.88760525,73.91060384

>  <CHROM.1>
-1.48257077,3.19429420,12.21110036,-2.86991641,0.34337447,0.41831135

>  <INDEX>
614360

>  <Name>
Pyxis Discovery PYX 00003417

>  <RI>
-2.07807e+09

>  <Rbt.Current_Directory>
/aloy/home/acomajuncosa/PocketVec_v2/GitLab_repo

>  <Rbt.Executable>
rbdock ($Id: //depot/dev/client3/rdock/2021.1/src/exe/rbdock.cxx#4 $)

>  <Rbt.Library>
libRbt.so (2021.1, Build901 2021/07/19)

>  <Rbt.Parameter_File>
examples/2_pocketvec/rDock_results/dock.prm

>  <Rbt.Receptor>
examples/2_pocketvec/rDock_results/st_parameters.prm

>  <SCORE>
-14.3964

>  <SCORE.INTER>
-9.2908

>  <SCORE.INTER.CONST>
1

>  <SCORE.INTER.POLAR>
0

>  <SCORE.INTER.REPUL>
0

>  <SCORE.INTER.ROT>
6

>  <SCORE.INTER.VDW>
-20.6908

>  <SCORE.INTER.norm>
-0.290337

>  <SCORE.INTRA>
-1.72795e-12

>  <SCORE.INTRA.DIHEDRAL>
-2.1263e-12

>  <SCORE.INTRA.DIHEDRAL.0>
8.87578

>  <SCORE.INTRA.POLAR>
0

>  <SCORE.INTRA.POLAR.0>
0

>  <SCORE.INTRA.REPUL>
0

>  <SCORE.INTRA.REPUL.0>
0

>  <SCORE.INTRA.VDW>
-6.64802e-13

>  <SCORE.INTRA.VDW.0>
-2.75073

>  <SCORE.INTRA.norm>
-5.39985e-14

>  <SCORE.RESTR>
0

>  <SCORE.RESTR.CAVITY>
0

>  <SCORE.RESTR.norm>
0

>  <SCORE.SYSTEM>
-5.10561

>  <SCORE.SYSTEM.CONST>
0

>  <SCORE.SYSTEM.DIHEDRAL>
2.65384

>  <SCORE.SYSTEM.POLAR>
-1.74598

>  <SCORE.SYSTEM.VDW>
-0.496206

>  <SCORE.SYSTEM.norm>
-0.15955

>  <SCORE.heavy>
32

>  <SCORE.norm>
-0.449888

$$$$
Asinex ASN 09961559
  rDOCK(R)          3D
libRbt.so/2021.1/901 2021/07/19
 28 31  0  0  0  0  0  0  0  0999 V2000
   -5.5432    2.6561   15.6697 N   0  0  0  0  0  0
   -4.7774    6.9744    9.3880 C   0  0  0  0  0  0
   -4.8573    5.9645   10.2248 N   0  0  0  0  0  0
   -6.1546    2.6527   16.9148 C   0  0  0  0  0  0
   -4.4911    6.7965    8.0378 N   0  0  0  0  0  0
   -5.5518    3.7146   14.7406 C   0  0  0  0  0  0
   -5.1557    6.4387   11.4927 C   0  0  0  0  0  0
   -4.3815    7.7857    7.0704 C   0  0  0  0  0  0
   -5.0420    8.5324   10.0501 S   0  0  0  0  0  0
   -4.8353    3.3596   13.6012 C   0  0  0  0  0  0
   -5.2860    7.8115   11.5900 C   0  0  0  0  0  0
   -4.7653    1.5401   15.0876 C   0  0  0  0  0  0
   -5.2962    5.4991   12.6260 C   0  0  0  0  0  0
   -4.6968    4.2408   12.5321 C   0  0  0  0  0  0
   -6.1485    4.9594   14.8407 C   0  0  0  0  0  0
   -6.7992    3.5866   17.3892 O   0  0  0  0  0  0
   -4.2781    1.9789   13.7034 C   0  0  0  0  0  0
   -4.5096    8.9994    7.1998 O   0  0  0  0  0  0
   -6.0179    5.8557   13.7726 C   0  0  0  0  0  0
   -4.0617    7.1871    5.7229 C   0  0  0  0  0  0
   -5.9855    1.3773   17.7109 C   0  0  0  0  0  0
   -2.6132    6.6623    5.6658 C   0  0  0  0  0  0
   -4.2792    8.1845    4.5691 C   0  0  0  0  0  0
   -6.7955    0.2365   17.0626 C   0  0  0  0  0  0
   -6.3405    1.5220   19.1694 C   0  0  0  0  0  0
   -2.4320    6.5578    4.1118 C   0  0  0  0  0  0
   -3.4473    7.4859    3.4492 C   0  0  0  0  0  0
   -4.3476    5.8456    7.7294 H   0  0  0  0  0  0
  1  4  1  0  0  0
  1  6  1  0  0  0
  1 12  1  0  0  0
  2  3  2  0  0  0
  2  5  1  0  0  0
  2  9  1  0  0  0
  3  7  1  0  0  0
  4 16  2  0  0  0
  4 21  1  0  0  0
  5  8  1  0  0  0
  5 28  1  0  0  0
  6 10  1  0  0  0
  6 15  2  0  0  0
  7 11  2  0  0  0
  7 13  1  0  0  0
  8 18  2  0  0  0
  8 20  1  0  0  0
  9 11  1  0  0  0
 10 14  2  0  0  0
 10 17  1  0  0  0
 12 17  1  0  0  0
 13 14  1  0  0  0
 13 19  2  0  0  0
 15 19  1  0  0  0
 20 22  1  0  0  0
 20 23  1  0  0  0
 21 24  1  0  0  0
 21 25  1  0  0  0
 22 26  1  0  0  0
 23 27  1  0  0  0
 26 27  1  0  0  0
M  END
>  <$CLUSTER>
939

>  <CHROM.0>
2.20105862,171.52493083,71.44543400

>  <CHROM.1>
-4.98666757,5.27890463,11.52383909,-2.04278635,1.17778126,-0.66022401

>  <INDEX>
171136

>  <Name>
Asinex ASN 09961559

>  <RI>
-2.07807e+09

>  <Rbt.Current_Directory>
/aloy/home/acomajuncosa/PocketVec_v2/GitLab_repo

>  <Rbt.Executable>
rbdock ($Id: //depot/dev/client3/rdock/2021.1/src/exe/rbdock.cxx#4 $)

>  <Rbt.Library>
libRbt.so (2021.1, Build901 2021/07/19)

>  <Rbt.Parameter_File>
examples/2_pocketvec/rDock_results/dock.prm

>  <Rbt.Receptor>
examples/2_pocketvec/rDock_results/st_parameters.prm

>  <SCORE>
-13.1813

>  <SCORE.INTER>
-7.58615

>  <SCORE.INTER.CONST>
1

>  <SCORE.INTER.POLAR>
0

>  <SCORE.INTER.REPUL>
0

>  <SCORE.INTER.ROT>
4

>  <SCORE.INTER.VDW>
-16.9862

>  <SCORE.INTER.norm>
-0.280969

>  <SCORE.INTRA>
-8.48432e-13

>  <SCORE.INTRA.DIHEDRAL>
-4.83169e-13

>  <SCORE.INTRA.DIHEDRAL.0>
3.6502

>  <SCORE.INTRA.POLAR>
0

>  <SCORE.INTRA.POLAR.0>
0

>  <SCORE.INTRA.REPUL>
0

>  <SCORE.INTRA.REPUL.0>
0

>  <SCORE.INTRA.VDW>
-6.06848e-13

>  <SCORE.INTRA.VDW.0>
0.927509

>  <SCORE.INTRA.norm>
-3.14234e-14

>  <SCORE.RESTR>
0.00038328

>  <SCORE.RESTR.CAVITY>
0.00038328

>  <SCORE.RESTR.norm>
1.41956e-05

>  <SCORE.SYSTEM>
-5.59553

>  <SCORE.SYSTEM.CONST>
0

>  <SCORE.SYSTEM.DIHEDRAL>
1.0445

>  <SCORE.SYSTEM.POLAR>
-1.72546

>  <SCORE.SYSTEM.VDW>
-0.251226

>  <SCORE.SYSTEM.norm>
-0.207242

>  <SCORE.heavy>
27

>  <SCORE.norm>
-0.488196

$$$$
Pyxis Discovery PYX 00004219
  rDOCK(R)          3D
libRbt.so/2021.1/901 2021/07/19
 30 33  0  0  0  0  0  0  0  0999 V2000
   -3.1806    5.6908   11.1123 N   0  0  0  0  0  0
   -2.8754    4.8489   12.0547 C   0  0  0  0  0  0
   -3.3114    6.8385   11.8382 C   0  0  0  0  0  0
   -3.5489    1.1775   11.2254 N   0  0  0  0  0  0
   -3.1026    6.7207   13.1519 N   0  0  0  0  0  0
   -4.2995    0.2407   11.8778 C   0  0  0  0  0  0
   -2.8055    5.3617   13.2977 O   0  0  0  0  0  0
   -2.5900    3.3538   11.9286 C   0  0  0  0  0  0
   -3.8152    2.6090   11.3804 C   0  0  0  0  0  0
   -3.9325   -1.2025   11.6423 C   0  0  0  0  0  0
   -3.6636    8.1133   11.1806 C   0  0  0  0  0  0
   -3.8684    8.1599    9.7933 C   0  0  0  0  0  0
   -4.2022    9.3619    9.1634 C   0  0  0  0  0  0
   -5.2381    0.5082   12.6322 O   0  0  0  0  0  0
   -4.3353   10.5302    9.9103 C   0  0  0  0  0  0
   -2.6446   -1.5731   11.2787 C   0  0  0  0  0  0
   -3.8005    9.2974   11.9205 C   0  0  0  0  0  0
   -4.1347   10.4979   11.2874 C   0  0  0  0  0  0
   -2.4253    0.9354   10.3206 C   0  0  0  0  0  0
   -2.3495   -2.9232   11.0730 C   0  0  0  0  0  0
   -4.4187    9.4821    7.8038 O   0  0  0  0  0  0
   -1.1407   -3.3645   10.7199 F   0  0  0  0  0  0
   -1.3674    3.1079   11.0347 C   0  0  0  0  0  0
   -4.6658   11.6646    9.2035 O   0  0  0  0  0  0
   -4.9269   -2.1636   11.8177 C   0  0  0  0  0  0
   -1.1514    1.6130   10.8202 C   0  0  0  0  0  0
   -4.6273   -3.5115   11.6111 C   0  0  0  0  0  0
   -3.3394   -3.8908   11.2365 C   0  0  0  0  0  0
   -4.2923    8.3089    7.0079 C   0  0  0  0  0  0
   -4.8090   12.8752    9.9374 C   0  0  0  0  0  0
  1  2  2  0  0  0
  1  3  1  0  0  0
  2  7  1  0  0  0
  2  8  1  0  0  0
  3  5  2  0  0  0
  3 11  1  0  0  0
  4  6  1  0  0  0
  4  9  1  0  0  0
  4 19  1  0  0  0
  5  7  1  0  0  0
  6 10  1  0  0  0
  6 14  2  0  0  0
  8  9  1  0  0  0
  8 23  1  0  0  0
 10 16  2  0  0  0
 10 25  1  0  0  0
 11 12  1  0  0  0
 11 17  2  0  0  0
 12 13  2  0  0  0
 13 15  1  0  0  0
 13 21  1  0  0  0
 15 18  2  0  0  0
 15 24  1  0  0  0
 16 20  1  0  0  0
 17 18  1  0  0  0
 19 26  1  0  0  0
 20 22  1  0  0  0
 20 28  2  0  0  0
 21 29  1  0  0  0
 23 26  1  0  0  0
 24 30  1  0  0  0
 25 27  2  0  0  0
 27 28  1  0  0  0
M  END
>  <$CLUSTER>
938

>  <CHROM.0>
-2.31934737,171.39696618,75.80647943

>  <CHROM.1>
-3.47751091,4.09736232,10.94318642,-2.39351984,1.45136199,-2.44398661

>  <INDEX>
615056

>  <Name>
Pyxis Discovery PYX 00004219

>  <RI>
-2.07807e+09

>  <Rbt.Current_Directory>
/aloy/home/acomajuncosa/PocketVec_v2/GitLab_repo

>  <Rbt.Executable>
rbdock ($Id: //depot/dev/client3/rdock/2021.1/src/exe/rbdock.cxx#4 $)

>  <Rbt.Library>
libRbt.so (2021.1, Build901 2021/07/19)

>  <Rbt.Parameter_File>
examples/2_pocketvec/rDock_results/dock.prm

>  <Rbt.Receptor>
examples/2_pocketvec/rDock_results/st_parameters.prm

>  <SCORE>
-11.5416

>  <SCORE.INTER>
-5.95916

>  <SCORE.INTER.CONST>
1

>  <SCORE.INTER.POLAR>
0

>  <SCORE.INTER.REPUL>
0.00161487

>  <SCORE.INTER.ROT>
5

>  <SCORE.INTER.VDW>
-16.3672

>  <SCORE.INTER.norm>
-0.198639

>  <SCORE.INTRA>
-2.44748e-12

>  <SCORE.INTRA.DIHEDRAL>
-1.31228e-12

>  <SCORE.INTRA.DIHEDRAL.0>
3.44212

>  <SCORE.INTRA.POLAR>
0

>  <SCORE.INTRA.POLAR.0>
0

>  <SCORE.INTRA.REPUL>
1.35239e-14

>  <SCORE.INTRA.REPUL.0>
0.0195845

>  <SCORE.INTRA.VDW>
-1.85896e-12

>  <SCORE.INTRA.VDW.0>
6.27866

>  <SCORE.INTRA.norm>
-8.15827e-14

>  <SCORE.RESTR>
0

>  <SCORE.RESTR.CAVITY>
0

>  <SCORE.RESTR.norm>
0

>  <SCORE.SYSTEM>
-5.58249

>  <SCORE.SYSTEM.CONST>
0

>  <SCORE.SYSTEM.DIHEDRAL>
1.59661

>  <SCORE.SYSTEM.POLAR>
-1.76138

>  <SCORE.SYSTEM.VDW>
-0.39211

>  <SCORE.SYSTEM.norm>
-0.186083

>  <SCORE.heavy>
30

>  <SCORE.norm>
-0.384722

$$$$
Asinex ASN 03271999
  rDOCK(R)          3D
libRbt.so/2021.1/901 2021/07/19
 29 31  0  0  0  0  0  0  0  0999 V2000
   -3.2782    3.9689   10.5115 C   0  0  0  0  0  0
   -2.4947    3.3544   11.6172 C   0  0  0  0  0  0
   -4.0583    5.4227    9.1718 N   0  0  0  0  0  0
   -3.2093    5.2830   10.2211 N   0  0  0  0  0  0
   -4.6022    4.2190    8.8679 N   0  0  0  0  0  0
   -3.4084    2.7593   12.6900 C   0  0  0  0  0  0
   -6.7876    0.9600   16.5768 C   0  0  0  0  0  0
   -4.1158    3.2760    9.7139 N   0  5  0  0  0  0
   -4.0756    3.7075   13.4287 N   0  0  0  0  0  0
   -6.3245    2.2795   16.0311 C   0  0  0  0  0  0
   -1.5127    2.3050   11.0937 C   0  0  0  0  0  0
   -3.5569    1.5503   12.8537 O   0  0  0  0  0  0
   -4.9878    3.5822   14.4824 C   0  0  0  0  0  0
   -5.4066    2.3441   14.9764 C   0  0  0  0  0  0
   -0.4484    2.8272   10.1534 C   0  0  0  0  0  0
   -8.1390    0.8398   16.4676 F   0  0  0  0  0  0
   -6.4914    0.8541   17.9012 F   0  0  0  0  0  0
   -6.2514   -0.1377   15.9735 F   0  0  0  0  0  0
    0.7431    3.3359   10.6671 C   0  0  0  0  0  0
    1.7013    3.8700    9.8042 C   0  0  0  0  0  0
    2.8499    4.3125   10.4282 O   0  0  0  0  0  0
   -6.8290    3.4466   16.5999 C   0  0  0  0  0  0
   -6.4181    4.6839   16.1138 C   0  0  0  0  0  0
    0.2482    3.4454    7.9265 C   0  0  0  0  0  0
   -5.5029    4.7524   15.0622 C   0  0  0  0  0  0
   -0.7112    2.9109    8.7876 C   0  0  0  0  0  0
    1.4526    3.9226    8.4347 C   0  0  0  0  0  0
    3.8561    4.8781    9.5959 C   0  0  0  0  0  0
   -3.8719    4.6611   13.1647 H   0  0  0  0  0  0
  1  2  1  0  0  0
  1  4  2  0  0  0
  1  8  1  0  0  0
  2  6  1  0  0  0
  2 11  1  0  0  0
  3  4  1  0  0  0
  3  5  2  0  0  0
  5  8  1  0  0  0
  6  9  1  0  0  0
  6 12  2  0  0  0
  7 10  1  0  0  0
  7 16  1  0  0  0
  7 17  1  0  0  0
  7 18  1  0  0  0
  9 13  1  0  0  0
  9 29  1  0  0  0
 10 14  2  0  0  0
 10 22  1  0  0  0
 11 15  1  0  0  0
 13 14  1  0  0  0
 13 25  2  0  0  0
 15 19  2  0  0  0
 15 26  1  0  0  0
 19 20  1  0  0  0
 20 21  1  0  0  0
 20 27  2  0  0  0
 21 28  1  0  0  0
 22 23  2  0  0  0
 23 25  1  0  0  0
 24 26  2  0  0  0
 24 27  1  0  0  0
M  END
>  <$CLUSTER>
877

>  <CHROM.0>
174.58496109,171.89474026,167.84895736

>  <CHROM.1>
-3.23620832,3.08177083,12.50315099,0.76818249,0.15032035,-1.11561366

>  <INDEX>
130463

>  <Name>
Asinex ASN 03271999

>  <RI>
-2.07807e+09

>  <Rbt.Current_Directory>
/aloy/home/acomajuncosa/PocketVec_v2/GitLab_repo

>  <Rbt.Executable>
rbdock ($Id: //depot/dev/client3/rdock/2021.1/src/exe/rbdock.cxx#4 $)

>  <Rbt.Library>
libRbt.so (2021.1, Build901 2021/07/19)

>  <Rbt.Parameter_File>
examples/2_pocketvec/rDock_results/dock.prm

>  <Rbt.Receptor>
examples/2_pocketvec/rDock_results/st_parameters.prm

>  <SCORE>
-12.9507

>  <SCORE.INTER>
-10.633

>  <SCORE.INTER.CONST>
1

>  <SCORE.INTER.POLAR>
-2.15577

>  <SCORE.INTER.REPUL>
0

>  <SCORE.INTER.ROT>
7

>  <SCORE.INTER.VDW>
-15.7034

>  <SCORE.INTER.norm>
-0.379749

>  <SCORE.INTRA>
1.45528e-12

>  <SCORE.INTRA.DIHEDRAL>
-2.67342e-13

>  <SCORE.INTRA.DIHEDRAL.0>
3.76364

>  <SCORE.INTRA.POLAR>
0

>  <SCORE.INTRA.POLAR.0>
0

>  <SCORE.INTRA.REPUL>
0

>  <SCORE.INTRA.REPUL.0>
0

>  <SCORE.INTRA.VDW>
1.58895e-12

>  <SCORE.INTRA.VDW.0>
-0.412677

>  <SCORE.INTRA.norm>
5.19743e-14

>  <SCORE.RESTR>
0

>  <SCORE.RESTR.CAVITY>
0

>  <SCORE.RESTR.norm>
0

>  <SCORE.SYSTEM>
-2.31773

>  <SCORE.SYSTEM.CONST>
0

>  <SCORE.SYSTEM.DIHEDRAL>
1.14096

>  <SCORE.SYSTEM.POLAR>
-0.994987

>  <SCORE.SYSTEM.VDW>
0.494752

>  <SCORE.SYSTEM.norm>
-0.082776

>  <SCORE.heavy>
28

>  <SCORE.norm>
-0.462525

$$$$
InterBioScreen STOCK4S-65808
  rDOCK(R)          3D
libRbt.so/2021.1/901 2021/07/19
 25 26  0  0  0  0  0  0  0  0999 V2000
   -4.6161    1.9866   12.5475 C   0  0  0  0  0  0
   -3.9203    0.9376   11.3914 S   0  0  0  0  0  0
   -4.9511    1.3953   13.6761 N   0  0  0  0  0  0
   -4.6591    0.0433   13.6674 N   0  0  0  0  0  0
   -4.8081    3.3351   12.3096 N   0  0  0  0  0  0
   -4.1152   -0.3259   12.5296 C   0  0  0  0  0  0
   -4.4833    4.0287   11.1517 C   0  0  0  0  0  0
   -4.8900    7.7672   10.1973 C   0  0  0  0  0  0
   -4.5896    8.5143    9.0800 N   0  0  0  0  0  0
   -4.7714    9.8863    8.8120 C   0  0  0  0  0  0
   -5.3398   10.7719    9.7343 C   0  0  0  0  0  0
   -3.9706    3.5997   10.1230 O   0  0  0  0  0  0
   -5.4063    8.2424   11.2077 O   0  0  0  0  0  0
   -4.8465    5.4881   11.2776 C   0  0  0  0  0  0
   -5.4941   12.1235    9.4103 C   0  0  0  0  0  0
   -4.5177    6.3180   10.0443 C   0  0  0  0  0  0
   -6.2493   13.2667   10.6586 Br  0  0  0  0  0  0
   -3.6897   -1.7280   12.2145 C   0  0  0  0  0  0
   -4.5190   11.7308    7.2437 C   0  0  0  0  0  0
   -4.3632   10.3798    7.5637 C   0  0  0  0  0  0
   -5.0850   12.6028    8.1679 C   0  0  0  0  0  0
   -4.8444   -2.5546   11.6725 C   0  0  0  0  0  0
   -4.4200   -3.9858   11.3482 C   0  0  0  0  0  0
   -5.2283    3.8709   13.0555 H   0  0  0  0  0  0
   -4.1678    7.9907    8.3258 H   0  0  0  0  0  0
  1  2  1  0  0  0
  1  3  2  0  0  0
  1  5  1  0  0  0
  2  6  1  0  0  0
  3  4  1  0  0  0
  4  6  2  0  0  0
  5  7  1  0  0  0
  5 24  1  0  0  0
  6 18  1  0  0  0
  7 12  2  0  0  0
  7 14  1  0  0  0
  8  9  1  0  0  0
  8 13  2  0  0  0
  8 16  1  0  0  0
  9 10  1  0  0  0
  9 25  1  0  0  0
 10 11  2  0  0  0
 10 20  1  0  0  0
 11 15  1  0  0  0
 14 16  1  0  0  0
 15 17  1  0  0  0
 15 21  2  0  0  0
 18 22  1  0  0  0
 19 20  2  0  0  0
 19 21  1  0  0  0
 22 23  1  0  0  0
M  END
>  <$CLUSTER>
554

>  <CHROM.0>
2.33418684,172.42584723,167.89085825

>  <CHROM.1>
-4.93437972,6.39690258,10.74628940,1.29310630,-1.19176074,2.70136806

>  <INDEX>
358888

>  <Name>
InterBioScreen STOCK4S-65808

>  <RI>
-2.07807e+09

>  <Rbt.Current_Directory>
/aloy/home/acomajuncosa/PocketVec_v2/GitLab_repo

>  <Rbt.Executable>
rbdock ($Id: //depot/dev/client3/rdock/2021.1/src/exe/rbdock.cxx#4 $)

>  <Rbt.Library>
libRbt.so (2021.1, Build901 2021/07/19)

>  <Rbt.Parameter_File>
examples/2_pocketvec/rDock_results/dock.prm

>  <Rbt.Receptor>
examples/2_pocketvec/rDock_results/st_parameters.prm

>  <SCORE>
-0.174113

>  <SCORE.INTER>
2.29691

>  <SCORE.INTER.CONST>
1

>  <SCORE.INTER.POLAR>
0

>  <SCORE.INTER.REPUL>
0

>  <SCORE.INTER.ROT>
7

>  <SCORE.INTER.VDW>
-10.1031

>  <SCORE.INTER.norm>
0.0998655

>  <SCORE.INTRA>
7.95586e-13

>  <SCORE.INTRA.DIHEDRAL>
-3.82805e-13

>  <SCORE.INTRA.DIHEDRAL.0>
3.53528

>  <SCORE.INTRA.POLAR>
0

>  <SCORE.INTRA.POLAR.0>
0

>  <SCORE.INTRA.REPUL>
0

>  <SCORE.INTRA.REPUL.0>
0

>  <SCORE.INTRA.VDW>
9.86988e-13

>  <SCORE.INTRA.VDW.0>
-0.522339

>  <SCORE.INTRA.norm>
3.45907e-14

>  <SCORE.RESTR>
0

>  <SCORE.RESTR.CAVITY>
0

>  <SCORE.RESTR.norm>
0

>  <SCORE.SYSTEM>
-2.47102

>  <SCORE.SYSTEM.CONST>
0

>  <SCORE.SYSTEM.DIHEDRAL>
1.04868

>  <SCORE.SYSTEM.POLAR>
-0.994987

>  <SCORE.SYSTEM.VDW>
0.387598

>  <SCORE.SYSTEM.norm>
-0.107436

>  <SCORE.heavy>
23

>  <SCORE.norm>
-0.00757013

$$$$
Life Chemicals F0579-0521
  rDOCK(R)          3D
libRbt.so/2021.1/901 2021/07/19
 30 33  0  0  0  0  0  0  0  0999 V2000
   -2.5369    2.4925   12.0627 N   0  0  0  0  0  0
   -3.1499    3.5910   12.5973 C   0  0  0  0  0  0
   -1.2062    2.4689   11.7372 C   0  0  0  0  0  0
   -0.5216    3.7351   12.0225 C   0  0  0  0  0  0
   -2.5523    4.7138   12.8506 N   0  0  0  0  0  0
   -1.2141    4.7486   12.5433 C   0  0  0  0  0  0
   -4.9192    3.6864   12.8168 S   0  0  0  0  0  0
    1.1429    4.0292   11.7212 S   0  0  0  0  0  0
   -3.2922    1.2108   11.9494 C   0  0  0  0  0  0
   -0.6442    1.4883   11.2552 O   0  0  0  0  0  0
   -4.6085    6.1706   14.0237 C   0  0  0  0  0  0
   -3.3127    6.4539   14.2900 N   0  0  0  0  0  0
   -0.4014    5.9892   12.7684 C   0  0  0  0  0  0
   -5.3784    6.9830   13.5217 O   0  0  0  0  0  0
   -5.0034    4.7236   14.2944 C   0  0  0  0  0  0
   -3.9873    0.6456   13.0304 C   0  0  0  0  0  0
   -3.2549    0.5123   10.7318 C   0  0  0  0  0  0
   -2.5629    7.6338   14.1758 C   0  0  0  0  0  0
    1.0788    5.6100   12.6496 C   0  0  0  0  0  0
   -4.6273   -1.2441   11.6648 C   0  0  0  0  0  0
   -4.6551   -0.5725   12.8861 C   0  0  0  0  0  0
   -3.9255   -0.7046   10.5908 C   0  0  0  0  0  0
   -0.9870    9.9521   13.9665 C   0  0  0  0  0  0
   -5.2991   -2.3956   11.6100 F   0  0  0  0  0  0
   -3.1079    8.8181   13.6695 C   0  0  0  0  0  0
   -1.2171    7.6270   14.5755 C   0  0  0  0  0  0
   -0.4345    8.7793   14.4717 C   0  0  0  0  0  0
   -2.3215    9.9706   13.5658 C   0  0  0  0  0  0
   -0.1518   11.1843   13.8538 C   0  0  0  0  0  0
   -2.7843    5.6660   14.6369 H   0  0  0  0  0  0
  1  2  1  0  0  0
  1  3  1  0  0  0
  1  9  1  0  0  0
  2  5  2  0  0  0
  2  7  1  0  0  0
  3  4  1  0  0  0
  3 10  2  0  0  0
  4  6  2  0  0  0
  4  8  1  0  0  0
  5  6  1  0  0  0
  6 13  1  0  0  0
  7 15  1  0  0  0
  8 19  1  0  0  0
  9 16  2  0  0  0
  9 17  1  0  0  0
 11 12  1  0  0  0
 11 14  2  0  0  0
 11 15  1  0  0  0
 12 18  1  0  0  0
 12 30  1  0  0  0
 13 19  1  0  0  0
 16 21  1  0  0  0
 17 22  2  0  0  0
 18 25  1  0  0  0
 18 26  2  0  0  0
 20 21  2  0  0  0
 20 22  1  0  0  0
 20 24  1  0  0  0
 23 27  2  0  0  0
 23 28  1  0  0  0
 23 29  1  0  0  0
 25 28  2  0  0  0
 26 27  1  0  0  0
M  END
>  <$CLUSTER>
217

>  <CHROM.0>
176.32237060,171.14201065,74.93922699

>  <CHROM.1>
-2.49353593,4.32227705,12.76700955,-1.85268231,0.23753823,0.29659631

>  <INDEX>
275208

>  <Name>
Life Chemicals F0579-0521

>  <RI>
-2.07807e+09

>  <Rbt.Current_Directory>
/aloy/home/acomajuncosa/PocketVec_v2/GitLab_repo

>  <Rbt.Executable>
rbdock ($Id: //depot/dev/client3/rdock/2021.1/src/exe/rbdock.cxx#4 $)

>  <Rbt.Library>
libRbt.so (2021.1, Build901 2021/07/19)

>  <Rbt.Parameter_File>
examples/2_pocketvec/rDock_results/dock.prm

>  <Rbt.Receptor>
examples/2_pocketvec/rDock_results/st_parameters.prm

>  <SCORE>
-12.6572

>  <SCORE.INTER>
-7.21673

>  <SCORE.INTER.CONST>
1

>  <SCORE.INTER.POLAR>
0

>  <SCORE.INTER.REPUL>
0

>  <SCORE.INTER.ROT>
5

>  <SCORE.INTER.VDW>
-17.6167

>  <SCORE.INTER.norm>
-0.248853

>  <SCORE.INTRA>
-1.89191e-11

>  <SCORE.INTRA.DIHEDRAL>
-5.80869e-13

>  <SCORE.INTRA.DIHEDRAL.0>
11.0608

>  <SCORE.INTRA.POLAR>
0

>  <SCORE.INTRA.POLAR.0>
0

>  <SCORE.INTRA.REPUL>
0

>  <SCORE.INTRA.REPUL.0>
0

>  <SCORE.INTRA.VDW>
-1.86287e-11

>  <SCORE.INTRA.VDW.0>
4.6361

>  <SCORE.INTRA.norm>
-6.52382e-13

>  <SCORE.RESTR>
0

>  <SCORE.RESTR.CAVITY>
0

>  <SCORE.RESTR.norm>
0

>  <SCORE.SYSTEM>
-5.4405

>  <SCORE.SYSTEM.CONST>
0

>  <SCORE.SYSTEM.DIHEDRAL>
1.51475

>  <SCORE.SYSTEM.POLAR>
-1.75438

>  <SCORE.SYSTEM.VDW>
-0.232991

>  <SCORE.SYSTEM.norm>
-0.187604

>  <SCORE.heavy>
29

>  <SCORE.norm>
-0.436456

$$$$
Chem T&I UZI/1102918
  rDOCK(R)          3D
libRbt.so/2021.1/901 2021/07/19
 28 30  0  0  0  0  0  0  0  0999 V2000
   -3.7361    3.7660    9.7846 S   0  0  0  0  0  0
   -5.1528    0.5587   15.7961 S   0  0  0  0  0  0
   -3.7371    5.2309   10.7944 C   0  0  0  0  0  0
   -2.7714    2.7264   10.7486 N   0  0  0  0  0  0
   -4.4692    1.2058   14.3102 C   0  0  0  0  0  0
   -5.0997    3.2830    9.6990 O   0  0  0  0  0  0
   -2.9877    4.0830    8.5826 O   0  0  0  0  0  0
   -2.7432    6.1872   10.6270 C   0  0  0  0  0  0
   -5.7486   -0.7253   15.4854 O   0  0  0  0  0  0
   -4.1478    0.6800   16.8334 O   0  0  0  0  0  0
   -6.3915    1.6917   16.0859 N   0  0  0  0  0  0
   -2.7710    7.3413   11.4104 C   0  0  0  0  0  0
   -4.7628    5.4040   11.7241 C   0  0  0  0  0  0
   -3.3490    2.1897   11.9506 C   0  0  0  0  0  0
   -3.7881    7.5279   12.3471 C   0  0  0  0  0  0
   -3.4217    2.1240   14.3671 C   0  0  0  0  0  0
   -4.9556    0.7774   13.0752 C   0  0  0  0  0  0
   -4.7819    6.5606   12.5025 C   0  0  0  0  0  0
   -2.8599    2.6178   13.1883 C   0  0  0  0  0  0
   -4.3982    1.2684   11.8941 C   0  0  0  0  0  0
   -1.7675    8.3364   11.2653 C   0  0  0  0  0  0
   -6.0481    3.0899   16.3951 C   0  0  0  0  0  0
   -3.8017    8.7113   13.1372 C   0  0  0  0  0  0
   -7.2201    3.7499   17.0994 C   0  0  0  0  0  0
   -1.7931    9.4923   12.0467 C   0  0  0  0  0  0
   -2.8078    9.6794   12.9806 C   0  0  0  0  0  0
   -1.8247    2.4980   10.4794 H   0  0  0  0  0  0
   -6.9294    1.3438   16.8663 H   0  0  0  0  0  0
  1  3  1  0  0  0
  1  4  1  0  0  0
  1  6  2  0  0  0
  1  7  2  0  0  0
  2  5  1  0  0  0
  2  9  2  0  0  0
  2 10  2  0  0  0
  2 11  1  0  0  0
  3  8  2  0  0  0
  3 13  1  0  0  0
  4 14  1  0  0  0
  4 27  1  0  0  0
  5 16  2  0  0  0
  5 17  1  0  0  0
  8 12  1  0  0  0
 11 22  1  0  0  0
 11 28  1  0  0  0
 12 15  2  0  0  0
 12 21  1  0  0  0
 13 18  2  0  0  0
 14 19  2  0  0  0
 14 20  1  0  0  0
 15 18  1  0  0  0
 15 23  1  0  0  0
 16 19  1  0  0  0
 17 20  2  0  0  0
 21 25  2  0  0  0
 22 24  1  0  0  0
 23 26  2  0  0  0
 25 26  1  0  0  0
M  END
>  <$CLUSTER>
473

>  <CHROM.0>
173.50948521,172.30476896,73.80849600

>  <CHROM.1>
-4.14055869,3.84066913,12.88618899,-0.45597893,-1.23863434,-2.66874992

>  <INDEX>
647335

>  <Name>
Chem T&I UZI/1102918

>  <RI>
-2.07807e+09

>  <Rbt.Current_Directory>
/aloy/home/acomajuncosa/PocketVec_v2/GitLab_repo

>  <Rbt.Executable>
rbdock ($Id: //depot/dev/client3/rdock/2021.1/src/exe/rbdock.cxx#4 $)

>  <Rbt.Library>
libRbt.so (2021.1, Build901 2021/07/19)

>  <Rbt.Parameter_File>
examples/2_pocketvec/rDock_results/dock.prm

>  <Rbt.Receptor>
examples/2_pocketvec/rDock_results/st_parameters.prm

>  <SCORE>
-4.46246

>  <SCORE.INTER>
0.990176

>  <SCORE.INTER.CONST>
1

>  <SCORE.INTER.POLAR>
-1.74592

>  <SCORE.INTER.REPUL>
0.526283

>  <SCORE.INTER.ROT>
6

>  <SCORE.INTER.VDW>
-7.10512

>  <SCORE.INTER.norm>
0.0380837

>  <SCORE.INTRA>
1.73106e-12

>  <SCORE.INTRA.DIHEDRAL>
-2.50466e-13

>  <SCORE.INTRA.DIHEDRAL.0>
15.5211

>  <SCORE.INTRA.POLAR>
0

>  <SCORE.INTRA.POLAR.0>
0

>  <SCORE.INTRA.REPUL>
0

>  <SCORE.INTRA.REPUL.0>
0

>  <SCORE.INTRA.VDW>
1.85629e-12

>  <SCORE.INTRA.VDW.0>
-2.76129

>  <SCORE.INTRA.norm>
6.65792e-14

>  <SCORE.RESTR>
0

>  <SCORE.RESTR.CAVITY>
0

>  <SCORE.RESTR.norm>
0

>  <SCORE.SYSTEM>
-5.45263

>  <SCORE.SYSTEM.CONST>
0

>  <SCORE.SYSTEM.DIHEDRAL>
1.32568

>  <SCORE.SYSTEM.POLAR>
-1.74514

>  <SCORE.SYSTEM.VDW>
-0.182

>  <SCORE.SYSTEM.norm>
-0.209717

>  <SCORE.heavy>
26

>  <SCORE.norm>
-0.171633

$$$$
Asinex ASN 06916822
  rDOCK(R)          3D
libRbt.so/2021.1/901 2021/07/19
 30 33  0  0  0  0  0  0  0  0999 V2000
   -3.8899    1.8462   12.1783 C   0  0  0  0  0  0
   -4.7011    0.8905   12.7139 N   0  0  0  0  0  0
   -4.6730    2.4283   11.1971 C   0  0  0  0  0  0
   -2.6302    2.1695   12.5090 N   0  0  0  0  0  0
   -5.9067    0.8772   12.1077 N   0  0  0  0  0  0
   -5.8976    1.8221   11.1706 N   0  0  0  0  0  0
   -2.8324    3.8417   10.7416 N   0  0  0  0  0  0
   -2.1841    3.1822   11.7324 C   0  0  0  0  0  0
   -4.1036    3.4615   10.4633 C   0  0  0  0  0  0
    1.5587    5.3728   11.4904 N   0  0  0  0  0  0
    2.1756    6.4199   10.8737 C   0  0  0  0  0  0
   -4.4082   -0.0337   13.7845 C   0  0  0  0  0  0
   -0.7254    3.6410   12.0295 C   0  0  0  0  0  0
    0.7523    5.5629   12.7003 C   0  0  0  0  0  0
    1.5842    3.9634   11.0885 C   0  0  0  0  0  0
    2.1135    7.5881   11.2655 O   0  0  0  0  0  0
    0.1866    3.4253   10.8206 C   0  0  0  0  0  0
   -0.6826    5.0941   12.5020 C   0  0  0  0  0  0
   -4.7767    4.0934    9.4894 O   0  0  0  0  0  0
   -4.8350    0.5031   15.1395 C   0  0  0  0  0  0
   -5.6237    1.5119   17.6385 C   0  0  0  0  0  0
   -6.0477    0.1006   15.7185 C   0  0  0  0  0  0
   -4.0310    1.4309   15.8192 C   0  0  0  0  0  0
   -6.4376    0.6003   16.9641 C   0  0  0  0  0  0
   -4.4222    1.9289   17.0655 C   0  0  0  0  0  0
    2.9769    6.0982    9.6377 C   0  0  0  0  0  0
   -6.0361    2.0413   18.9718 C   0  0  0  0  0  0
    3.6427    7.2477    8.9737 C   0  0  0  0  0  0
    4.4305    6.8831    7.7466 C   0  0  0  0  0  0
   -4.2898    4.7923    9.0469 H   0  0  0  0  0  0
  1  2  1  0  0  0
  1  3  1  0  0  0
  1  4  2  0  0  0
  2  5  1  0  0  0
  2 12  1  0  0  0
  3  6  1  0  0  0
  3  9  2  0  0  0
  4  8  1  0  0  0
  5  6  2  0  0  0
  7  8  2  0  0  0
  7  9  1  0  0  0
  8 13  1  0  0  0
  9 19  1  0  0  0
 10 11  1  0  0  0
 10 14  1  0  0  0
 10 15  1  0  0  0
 11 16  2  0  0  0
 11 26  1  0  0  0
 12 20  1  0  0  0
 13 17  1  0  0  0
 13 18  1  0  0  0
 14 18  1  0  0  0
 15 17  1  0  0  0
 19 30  1  0  0  0
 20 22  2  0  0  0
 20 23  1  0  0  0
 21 24  2  0  0  0
 21 25  1  0  0  0
 21 27  1  0  0  0
 22 24  1  0  0  0
 23 25  2  0  0  0
 26 28  1  0  0  0
 28 29  1  0  0  0
M  END
>  <$CLUSTER>
937

>  <CHROM.0>
2.14994233,171.81212758,81.70112358

>  <CHROM.1>
-2.18011997,3.31632398,12.49947118,2.57379167,0.53018217,1.65366710

>  <INDEX>
164267

>  <Name>
Asinex ASN 06916822

>  <RI>
-2.07807e+09

>  <Rbt.Current_Directory>
/aloy/home/acomajuncosa/PocketVec_v2/GitLab_repo

>  <Rbt.Executable>
rbdock ($Id: //depot/dev/client3/rdock/2021.1/src/exe/rbdock.cxx#4 $)

>  <Rbt.Library>
libRbt.so (2021.1, Build901 2021/07/19)

>  <Rbt.Parameter_File>
examples/2_pocketvec/rDock_results/dock.prm

>  <Rbt.Receptor>
examples/2_pocketvec/rDock_results/st_parameters.prm

>  <SCORE>
-7.2123

>  <SCORE.INTER>
-1.81576

>  <SCORE.INTER.CONST>
1

>  <SCORE.INTER.POLAR>
-0.925541

>  <SCORE.INTER.REPUL>
0.124836

>  <SCORE.INTER.ROT>
5

>  <SCORE.INTER.VDW>
-9.6931

>  <SCORE.INTER.norm>
-0.0626124

>  <SCORE.INTRA>
4.6807e-13

>  <SCORE.INTRA.DIHEDRAL>
8.9706e-14

>  <SCORE.INTRA.DIHEDRAL.0>
4.95425

>  <SCORE.INTRA.POLAR>
0

>  <SCORE.INTRA.POLAR.0>
0

>  <SCORE.INTRA.REPUL>
0

>  <SCORE.INTRA.REPUL.0>
0

>  <SCORE.INTRA.VDW>
4.23217e-13

>  <SCORE.INTRA.VDW.0>
-1.62303

>  <SCORE.INTRA.norm>
1.61403e-14

>  <SCORE.RESTR>
0

>  <SCORE.RESTR.CAVITY>
0

>  <SCORE.RESTR.norm>
0

>  <SCORE.SYSTEM>
-5.39654

>  <SCORE.SYSTEM.CONST>
0

>  <SCORE.SYSTEM.DIHEDRAL>
2.46893

>  <SCORE.SYSTEM.POLAR>
-1.79399

>  <SCORE.SYSTEM.VDW>
-0.531452

>  <SCORE.SYSTEM.norm>
-0.186088

>  <SCORE.heavy>
29

>  <SCORE.norm>
-0.2487

$$$$
Asinex ASN 04361294
  rDOCK(R)          3D
libRbt.so/2021.1/901 2021/07/19
 26 28  0  0  0  0  0  0  0  0999 V2000
   -2.9082    3.3490    9.6877 S   0  0  0  0  0  0
   -2.5587    7.1609   14.7213 S   0  0  0  0  0  0
   -3.4717    1.9077   10.3247 N   0  0  0  0  0  0
   -2.0514    8.6269   14.0644 N   0  0  0  0  0  0
   -2.8112    4.4071   11.1007 C   0  0  0  0  0  0
   -2.6404    6.1039   13.2779 C   0  0  0  0  0  0
   -3.9340    3.8650    8.7967 O   0  0  0  0  0  0
   -1.5649    3.1127    9.1882 O   0  0  0  0  0  0
   -2.4688   10.7646   12.9914 C   0  0  0  0  0  0
   -1.3907   11.1770   11.7265 S   0  0  0  0  0  0
   -1.4895    6.6894   15.5871 O   0  0  0  0  0  0
   -3.8982    7.3455   15.2539 O   0  0  0  0  0  0
   -2.9512    9.3341   13.1481 C   0  0  0  0  0  0
   -1.3813   12.8229   12.1910 C   0  0  0  0  0  0
   -2.8235   11.8652   13.7392 C   0  0  0  0  0  0
   -2.1892   13.0550   13.2807 C   0  0  0  0  0  0
   -3.9182    5.1701   11.4738 C   0  0  0  0  0  0
   -1.6217    4.4919   11.8270 C   0  0  0  0  0  0
   -1.5364    5.3417   12.9301 C   0  0  0  0  0  0
   -3.8388    6.0230   12.5763 C   0  0  0  0  0  0
   -2.5587    1.1350   11.2090 C   0  0  0  0  0  0
   -4.8725    1.8673   10.8247 C   0  0  0  0  0  0
   -5.3789    0.4437   11.0327 C   0  0  0  0  0  0
   -3.0287   -0.3015   11.4238 C   0  0  0  0  0  0
   -4.4594   -0.3597   11.9398 C   0  0  0  0  0  0
   -1.1944    8.4474   13.5605 H   0  0  0  0  0  0
  1  3  1  0  0  0
  1  5  1  0  0  0
  1  7  2  0  0  0
  1  8  2  0  0  0
  2  4  1  0  0  0
  2  6  1  0  0  0
  2 11  2  0  0  0
  2 12  2  0  0  0
  3 21  1  0  0  0
  3 22  1  0  0  0
  4 13  1  0  0  0
  4 26  1  0  0  0
  5 17  1  0  0  0
  5 18  2  0  0  0
  6 19  2  0  0  0
  6 20  1  0  0  0
  9 10  1  0  0  0
  9 13  1  0  0  0
  9 15  2  0  0  0
 10 14  1  0  0  0
 14 16  2  0  0  0
 15 16  1  0  0  0
 17 20  2  0  0  0
 18 19  1  0  0  0
 21 24  1  0  0  0
 22 23  1  0  0  0
 23 25  1  0  0  0
 24 25  1  0  0  0
M  END
>  <$CLUSTER>
283

>  <CHROM.0>
2.60013115,70.19890200,167.83645462

>  <CHROM.1>
-2.79430309,5.93766363,12.14824467,-2.44963268,1.37008774,1.14099852

>  <INDEX>
137208

>  <Name>
Asinex ASN 04361294

>  <RI>
-2.07807e+09

>  <Rbt.Current_Directory>
/aloy/home/acomajuncosa/PocketVec_v2/GitLab_repo

>  <Rbt.Executable>
rbdock ($Id: //depot/dev/client3/rdock/2021.1/src/exe/rbdock.cxx#4 $)

>  <Rbt.Library>
libRbt.so (2021.1, Build901 2021/07/19)

>  <Rbt.Parameter_File>
examples/2_pocketvec/rDock_results/dock.prm

>  <Rbt.Receptor>
examples/2_pocketvec/rDock_results/st_parameters.prm

>  <SCORE>
-5.45485

>  <SCORE.INTER>
-6.02001

>  <SCORE.INTER.CONST>
1

>  <SCORE.INTER.POLAR>
-0.923414

>  <SCORE.INTER.REPUL>
0

>  <SCORE.INTER.ROT>
6

>  <SCORE.INTER.VDW>
-14.2804

>  <SCORE.INTER.norm>
-0.2408

>  <SCORE.INTRA>
-1.54099e-13

>  <SCORE.INTRA.DIHEDRAL>
-5.44453e-13

>  <SCORE.INTRA.DIHEDRAL.0>
4.46777

>  <SCORE.INTRA.POLAR>
0

>  <SCORE.INTRA.POLAR.0>
0

>  <SCORE.INTRA.REPUL>
0

>  <SCORE.INTRA.REPUL.0>
0

>  <SCORE.INTRA.VDW>
1.18128e-13

>  <SCORE.INTRA.VDW.0>
-3.33258

>  <SCORE.INTRA.norm>
-6.16396e-15

>  <SCORE.RESTR>
0

>  <SCORE.RESTR.CAVITY>
0

>  <SCORE.RESTR.norm>
0

>  <SCORE.SYSTEM>
0.56516

>  <SCORE.SYSTEM.CONST>
0

>  <SCORE.SYSTEM.DIHEDRAL>
1.27499

>  <SCORE.SYSTEM.VDW>
-0.0723364

>  <SCORE.SYSTEM.norm>
0.0226064

>  <SCORE.heavy>
25

>  <SCORE.norm>
-0.218194

$$$$
Tripos 1557-10610
  rDOCK(R)          3D
libRbt.so/2021.1/901 2021/07/19
 24 26  0  0  0  0  0  0  0  0999 V2000
   -4.6551    3.3943   10.3719 S   0  0  0  0  0  0
   -3.5396    2.1722   10.8088 N   0  0  0  0  0  0
   -3.9349    1.1149   11.7839 C   0  0  0  0  0  0
   -4.5395    4.5159   11.7469 C   0  0  0  0  0  0
   -3.8215    1.5344   13.2282 C   0  0  0  0  0  0
   -5.9992    2.8498   10.3692 O   0  0  0  0  0  0
   -4.1535    4.1000    9.2076 O   0  0  0  0  0  0
   -5.3797    4.3408   12.8613 C   0  0  0  0  0  0
   -5.3070    5.2330   13.9328 C   0  0  0  0  0  0
   -3.6360    5.5839   11.7169 C   0  0  0  0  0  0
   -3.1271    2.4340   13.6772 O   0  0  0  0  0  0
   -4.4036    6.2961   13.8967 C   0  0  0  0  0  0
   -3.5686    6.4721   12.7907 C   0  0  0  0  0  0
   -2.0817    2.4784   10.7531 C   0  0  0  0  0  0
   -4.6005    0.7456   14.0145 O   0  0  0  0  0  0
   -3.1192   -0.1574   11.5208 C   0  0  0  0  0  0
   -6.1472    5.0655   15.0566 C   0  0  0  0  0  0
   -4.3406    7.1939   14.9910 C   0  0  0  0  0  0
   -4.6107    1.0033   15.4144 C   0  0  0  0  0  0
   -1.2960    1.2050   10.4664 C   0  0  0  0  0  0
   -1.6160    0.1102   11.4766 C   0  0  0  0  0  0
   -5.5410    0.0202   16.0955 C   0  0  0  0  0  0
   -6.0758    5.9556   16.1279 C   0  0  0  0  0  0
   -5.1753    7.0175   16.0947 C   0  0  0  0  0  0
  1  2  1  0  0  0
  1  4  1  0  0  0
  1  6  2  0  0  0
  1  7  2  0  0  0
  2  3  1  0  0  0
  2 14  1  0  0  0
  3  5  1  0  0  0
  3 16  1  0  0  0
  4  8  2  0  0  0
  4 10  1  0  0  0
  5 11  2  0  0  0
  5 15  1  0  0  0
  8  9  1  0  0  0
  9 12  2  0  0  0
  9 17  1  0  0  0
 10 13  2  0  0  0
 12 13  1  0  0  0
 12 18  1  0  0  0
 14 20  1  0  0  0
 15 19  1  0  0  0
 16 21  1  0  0  0
 17 23  2  0  0  0
 18 24  2  0  0  0
 19 22  1  0  0  0
 20 21  1  0  0  0
 23 24  1  0  0  0
M  END
>  <$CLUSTER>
718

>  <CHROM.0>
176.86864601,171.94570281,75.81801243

>  <CHROM.1>
-4.20752852,3.26489207,12.67442548,-0.31875385,1.22470269,-0.56906753

>  <INDEX>
471448

>  <Name>
Tripos 1557-10610

>  <RI>
-2.07807e+09

>  <Rbt.Current_Directory>
/aloy/home/acomajuncosa/PocketVec_v2/GitLab_repo

>  <Rbt.Executable>
rbdock ($Id: //depot/dev/client3/rdock/2021.1/src/exe/rbdock.cxx#4 $)

>  <Rbt.Library>
libRbt.so (2021.1, Build901 2021/07/19)

>  <Rbt.Parameter_File>
examples/2_pocketvec/rDock_results/dock.prm

>  <Rbt.Receptor>
examples/2_pocketvec/rDock_results/st_parameters.prm

>  <SCORE>
-12.3309

>  <SCORE.INTER>
-6.89354

>  <SCORE.INTER.CONST>
1

>  <SCORE.INTER.POLAR>
-0.540652

>  <SCORE.INTER.REPUL>
0.0944345

>  <SCORE.INTER.ROT>
5

>  <SCORE.INTER.VDW>
-15.9275

>  <SCORE.INTER.norm>
-0.287231

>  <SCORE.INTRA>
-6.62137e-13

>  <SCORE.INTRA.DIHEDRAL>
-5.60441e-13

>  <SCORE.INTRA.DIHEDRAL.0>
2.78831

>  <SCORE.INTRA.POLAR>
0

>  <SCORE.INTRA.POLAR.0>
0

>  <SCORE.INTRA.REPUL>
0

>  <SCORE.INTRA.REPUL.0>
0

>  <SCORE.INTRA.VDW>
-3.81917e-13

>  <SCORE.INTRA.VDW.0>
-3.28932

>  <SCORE.INTRA.norm>
-2.7589e-14

>  <SCORE.RESTR>
0

>  <SCORE.RESTR.CAVITY>
0

>  <SCORE.RESTR.norm>
0

>  <SCORE.SYSTEM>
-5.43734

>  <SCORE.SYSTEM.CONST>
0

>  <SCORE.SYSTEM.DIHEDRAL>
1.56297

>  <SCORE.SYSTEM.POLAR>
-1.76147

>  <SCORE.SYSTEM.VDW>
-0.22982

>  <SCORE.SYSTEM.norm>
-0.226556

>  <SCORE.heavy>
24

>  <SCORE.norm>
-0.513786

$$$$
Maybridge ML 00307
  rDOCK(R)          3D
libRbt.so/2021.1/901 2021/07/19
 22 23  0  0  0  0  0  0  0  0999 V2000
   -3.9532    2.8827   12.1190 C   0  0  0  0  0  0
   -4.7966    2.0942   14.2155 N   0  0  0  0  0  0
   -2.6932    3.5518   10.1195 N   0  0  0  0  0  0
   -2.7761    2.9836   11.4194 N   0  0  0  0  0  0
   -3.7100    2.2565   13.4151 N   0  0  0  0  0  0
   -4.9928    3.2699   11.6803 O   0  0  0  0  0  0
   -4.4886    1.7411   15.4279 C   0  0  0  0  0  0
   -1.6201    3.3850    9.5073 C   0  0  0  0  0  0
   -5.0617    1.1516   17.6783 N   0  0  0  0  0  0
   -0.2240    3.6770    7.5595 N   0  0  0  0  0  0
   -1.4667    3.9365    8.1218 C   0  0  0  0  0  0
   -5.5586    1.5184   16.4535 C   0  0  0  0  0  0
   -5.9884    0.9370   18.6445 C   0  0  0  0  0  0
   -0.0303    4.1536    6.3043 C   0  0  0  0  0  0
   -6.8914    1.6757   16.1658 C   0  0  0  0  0  0
   -2.4597    4.6262    7.4771 C   0  0  0  0  0  0
   -7.3583    1.0705   18.4478 C   0  0  0  0  0  0
   -0.9879    4.8616    5.5878 C   0  0  0  0  0  0
   -7.8130    1.4465   17.1859 C   0  0  0  0  0  0
   -2.2228    5.0997    6.1874 C   0  0  0  0  0  0
   -1.9296    2.6378   11.8485 H   0  0  0  0  0  0
   -2.7869    1.9606   13.7008 H   0  0  0  0  0  0
  1  4  1  0  0  0
  1  5  1  0  0  0
  1  6  2  0  0  0
  2  5  1  0  0  0
  2  7  2  0  0  0
  3  4  1  0  0  0
  3  8  2  0  0  0
  4 21  1  0  0  0
  5 22  1  0  0  0
  7 12  1  0  0  0
  8 11  1  0  0  0
  9 12  2  0  0  0
  9 13  1  0  0  0
 10 11  2  0  0  0
 10 14  1  0  0  0
 11 16  1  0  0  0
 12 15  1  0  0  0
 13 17  2  0  0  0
 14 18  2  0  0  0
 15 19  2  0  0  0
 16 20  2  0  0  0
 17 19  1  0  0  0
 18 20  1  0  0  0
M  END
>  <$CLUSTER>
872

>  <CHROM.0>
2.63732941,171.99942945,74.77863016

>  <CHROM.1>
-3.74698722,2.81318143,12.18894147,2.02136093,-0.18994342,1.94681007

>  <INDEX>
560500

>  <Name>
Maybridge ML 00307

>  <RI>
-2.07807e+09

>  <Rbt.Current_Directory>
/aloy/home/acomajuncosa/PocketVec_v2/GitLab_repo

>  <Rbt.Executable>
rbdock ($Id: //depot/dev/client3/rdock/2021.1/src/exe/rbdock.cxx#4 $)

>  <Rbt.Library>
libRbt.so (2021.1, Build901 2021/07/19)

>  <Rbt.Parameter_File>
examples/2_pocketvec/rDock_results/dock.prm

>  <Rbt.Receptor>
examples/2_pocketvec/rDock_results/st_parameters.prm

>  <SCORE>
-18.4125

>  <SCORE.INTER>
-12.819

>  <SCORE.INTER.CONST>
1

>  <SCORE.INTER.POLAR>
-2.14931

>  <SCORE.INTER.REPUL>
0

>  <SCORE.INTER.ROT>
4

>  <SCORE.INTER.VDW>
-14.9113

>  <SCORE.INTER.norm>
-0.640949

>  <SCORE.INTRA>
-2.28234e-13

>  <SCORE.INTRA.DIHEDRAL>
2.32592e-13

>  <SCORE.INTRA.DIHEDRAL.0>
0.476294

>  <SCORE.INTRA.POLAR>
0

>  <SCORE.INTRA.POLAR.0>
0

>  <SCORE.INTRA.REPUL>
0

>  <SCORE.INTRA.REPUL.0>
0

>  <SCORE.INTRA.VDW>
-3.4453e-13

>  <SCORE.INTRA.VDW.0>
-0.0568055

>  <SCORE.INTRA.norm>
-1.14117e-14

>  <SCORE.RESTR>
0

>  <SCORE.RESTR.CAVITY>
0

>  <SCORE.RESTR.norm>
0

>  <SCORE.SYSTEM>
-5.5935

>  <SCORE.SYSTEM.CONST>
0

>  <SCORE.SYSTEM.DIHEDRAL>
1.40499

>  <SCORE.SYSTEM.POLAR>
-1.75307

>  <SCORE.SYSTEM.VDW>
-0.335539

>  <SCORE.SYSTEM.norm>
-0.279675

>  <SCORE.heavy>
20

>  <SCORE.norm>
-0.920624

$$$$
Bionet 10X-0864
  rDOCK(R)          3D
libRbt.so/2021.1/901 2021/07/19
 24 26  0  0  0  0  0  0  0  0999 V2000
   -2.7358    8.7321   14.0953 S   0  0  0  0  0  0
   -4.0027    8.5248   13.0222 N   0  0  0  0  0  0
    4.8968    3.5859    9.2161 C   0  0  0  0  0  0
    5.5713    3.9850   10.2705 N   0  0  0  0  0  0
    3.4032    4.3751    8.9221 S   0  0  0  0  0  0
    3.6583    5.3391   10.3190 C   0  0  0  0  0  0
   -1.4101    7.8664   13.3250 C   0  0  0  0  0  0
    4.8607    4.9878   10.9013 C   0  0  0  0  0  0
   -3.0842    8.0378   15.3240 O   0  0  0  0  0  0
   -2.4141   10.1473   14.1286 O   0  0  0  0  0  0
   -3.9228    9.2201   11.7097 C   0  0  0  0  0  0
   -4.5801    7.1613   12.8782 C   0  0  0  0  0  0
   -1.2175    6.5121   13.5851 C   0  0  0  0  0  0
   -0.5363    8.5410   12.4748 C   0  0  0  0  0  0
    5.5059    2.3573    8.2331 Cl  0  0  0  0  0  0
    2.6732    6.3660   10.7434 C   0  0  0  0  0  0
    1.7535    5.7249   11.6153 O   0  0  0  0  0  0
    0.7338    6.5053   12.1398 C   0  0  0  0  0  0
   -0.1491    5.8352   12.9947 C   0  0  0  0  0  0
    0.5340    7.8641   11.8829 C   0  0  0  0  0  0
   -5.2672    9.2636   10.9876 C   0  0  0  0  0  0
   -5.9337    7.1697   12.1768 C   0  0  0  0  0  0
   -5.8696    7.8680   10.8165 C   0  0  0  0  0  0
   -7.2494    7.9392   10.1685 C   0  0  0  0  0  0
  1  2  1  0  0  0
  1  7  1  0  0  0
  1  9  2  0  0  0
  1 10  2  0  0  0
  2 11  1  0  0  0
  2 12  1  0  0  0
  3  4  2  0  0  0
  3  5  1  0  0  0
  3 15  1  0  0  0
  4  8  1  0  0  0
  5  6  1  0  0  0
  6  8  2  0  0  0
  6 16  1  0  0  0
  7 13  2  0  0  0
  7 14  1  0  0  0
 11 21  1  0  0  0
 12 22  1  0  0  0
 13 19  1  0  0  0
 14 20  2  0  0  0
 16 17  1  0  0  0
 17 18  1  0  0  0
 18 19  2  0  0  0
 18 20  1  0  0  0
 21 23  1  0  0  0
 22 23  1  0  0  0
 23 24  1  0  0  0
M  END
>  <$CLUSTER>
19

>  <CHROM.0>
2.72016764,170.99625957,73.62633430

>  <CHROM.1>
-0.27280310,6.59587047,11.56060897,-2.62841256,0.24760878,-2.10725597

>  <INDEX>
8245

>  <Name>
Bionet 10X-0864

>  <RI>
-2.07807e+09

>  <Rbt.Current_Directory>
/aloy/home/acomajuncosa/PocketVec_v2/GitLab_repo

>  <Rbt.Executable>
rbdock ($Id: //depot/dev/client3/rdock/2021.1/src/exe/rbdock.cxx#4 $)

>  <Rbt.Library>
libRbt.so (2021.1, Build901 2021/07/19)

>  <Rbt.Parameter_File>
examples/2_pocketvec/rDock_results/dock.prm

>  <Rbt.Receptor>
examples/2_pocketvec/rDock_results/st_parameters.prm

>  <SCORE>
-8.02472

>  <SCORE.INTER>
-2.41857

>  <SCORE.INTER.CONST>
1

>  <SCORE.INTER.POLAR>
0

>  <SCORE.INTER.REPUL>
0

>  <SCORE.INTER.ROT>
5

>  <SCORE.INTER.VDW>
-12.8186

>  <SCORE.INTER.norm>
-0.100774

>  <SCORE.INTRA>
-3.61267e-13

>  <SCORE.INTRA.DIHEDRAL>
4.27214e-13

>  <SCORE.INTRA.DIHEDRAL.0>
2.72313

>  <SCORE.INTRA.POLAR>
0

>  <SCORE.INTRA.POLAR.0>
0

>  <SCORE.INTRA.REPUL>
0

>  <SCORE.INTRA.REPUL.0>
0

>  <SCORE.INTRA.VDW>
-5.74873e-13

>  <SCORE.INTRA.VDW.0>
-0.886373

>  <SCORE.INTRA.norm>
-1.50528e-14

>  <SCORE.RESTR>
0

>  <SCORE.RESTR.CAVITY>
0

>  <SCORE.RESTR.norm>
0

>  <SCORE.SYSTEM>
-5.60614

>  <SCORE.SYSTEM.CONST>
0

>  <SCORE.SYSTEM.DIHEDRAL>
1.33979

>  <SCORE.SYSTEM.POLAR>
-1.74364

>  <SCORE.SYSTEM.VDW>
-0.347661

>  <SCORE.SYSTEM.norm>
-0.233589

>  <SCORE.heavy>
24

>  <SCORE.norm>
-0.334363

$$$$
Tripos 1526-22023
  rDOCK(R)          3D
libRbt.so/2021.1/901 2021/07/19
 26 27  0  0  0  0  0  0  0  0999 V2000
   -1.5962    3.9618   12.2707 C   0  0  0  0  0  0
   -1.5241    9.3419   12.9971 N   0  0  0  0  0  0
   -2.1387   10.5163   13.2663 C   0  0  0  0  0  0
   -2.3797    2.9086   12.6025 N   0  0  0  0  0  0
   -3.2810    2.5991   13.6686 C   0  0  0  0  0  0
   -1.9524    5.1005   12.9238 N   0  0  0  0  0  0
   -4.2500    1.5749   13.5347 C   0  0  0  0  0  0
   -0.3581    3.7698   11.1717 S   0  0  0  0  0  0
   -1.4600    8.6713   11.6924 C   0  0  0  0  0  0
   -0.8193    8.5662   14.0252 C   0  0  0  0  0  0
   -2.1861   11.0665   14.3628 O   0  0  0  0  0  0
   -5.0973    1.2840   14.6202 C   0  0  0  0  0  0
   -3.1683    3.2698   14.8947 C   0  0  0  0  0  0
   -1.3841    7.1532   14.1601 C   0  0  0  0  0  0
   -2.0464    7.2618   11.7460 C   0  0  0  0  0  0
   -1.3406    6.4268   12.8152 C   0  0  0  0  0  0
   -2.7355   11.0788   12.1805 O   0  0  0  0  0  0
   -4.9873    1.9823   15.8225 C   0  0  0  0  0  0
   -4.0201    2.9713   15.9603 C   0  0  0  0  0  0
   -5.7570    1.7676   16.9377 O   0  0  0  0  0  0
   -4.4175    0.7845   12.2613 C   0  0  0  0  0  0
   -3.4120   12.3085   12.3237 C   0  0  0  0  0  0
   -6.7577    0.7608   16.8503 C   0  0  0  0  0  0
   -3.9847   12.7221   10.9824 C   0  0  0  0  0  0
   -2.3109    2.1565   11.9323 H   0  0  0  0  0  0
   -2.7328    5.0221   13.5606 H   0  0  0  0  0  0
  1  4  1  0  0  0
  1  6  1  0  0  0
  1  8  2  0  0  0
  2  3  1  0  0  0
  2  9  1  0  0  0
  2 10  1  0  0  0
  3 11  2  0  0  0
  3 17  1  0  0  0
  4  5  1  0  0  0
  4 25  1  0  0  0
  5  7  2  0  0  0
  5 13  1  0  0  0
  6 16  1  0  0  0
  6 26  1  0  0  0
  7 12  1  0  0  0
  7 21  1  0  0  0
  9 15  1  0  0  0
 10 14  1  0  0  0
 12 18  2  0  0  0
 13 19  2  0  0  0
 14 16  1  0  0  0
 15 16  1  0  0  0
 17 22  1  0  0  0
 18 19  1  0  0  0
 18 20  1  0  0  0
 20 23  1  0  0  0
 22 24  1  0  0  0
M  END
>  <$CLUSTER>
683

>  <CHROM.0>
177.20719880,172.55226365,74.01148353

>  <CHROM.1>
-2.83936398,5.73130205,13.37631688,-1.89425002,0.78391162,-0.01214066

>  <INDEX>
448656

>  <Name>
Tripos 1526-22023

>  <RI>
-2.07807e+09

>  <Rbt.Current_Directory>
/aloy/home/acomajuncosa/PocketVec_v2/GitLab_repo

>  <Rbt.Executable>
rbdock ($Id: //depot/dev/client3/rdock/2021.1/src/exe/rbdock.cxx#4 $)

>  <Rbt.Library>
libRbt.so (2021.1, Build901 2021/07/19)

>  <Rbt.Parameter_File>
examples/2_pocketvec/rDock_results/dock.prm

>  <Rbt.Receptor>
examples/2_pocketvec/rDock_results/st_parameters.prm

>  <SCORE>
-9.42197

>  <SCORE.INTER>
-3.96429

>  <SCORE.INTER.CONST>
1

>  <SCORE.INTER.POLAR>
0

>  <SCORE.INTER.REPUL>
0

>  <SCORE.INTER.ROT>
5

>  <SCORE.INTER.VDW>
-14.3643

>  <SCORE.INTER.norm>
-0.165179

>  <SCORE.INTRA>
-4.9738e-14

>  <SCORE.INTRA.DIHEDRAL>
4.96492e-13

>  <SCORE.INTRA.DIHEDRAL.0>
3.99459

>  <SCORE.INTRA.POLAR>
0

>  <SCORE.INTRA.POLAR.0>
0

>  <SCORE.INTRA.REPUL>
0

>  <SCORE.INTRA.REPUL.0>
0

>  <SCORE.INTRA.VDW>
-2.97984e-13

>  <SCORE.INTRA.VDW.0>
3.21921

>  <SCORE.INTRA.norm>
-2.07242e-15

>  <SCORE.RESTR>
0

>  <SCORE.RESTR.CAVITY>
0

>  <SCORE.RESTR.norm>
0

>  <SCORE.SYSTEM>
-5.45768

>  <SCORE.SYSTEM.CONST>
0

>  <SCORE.SYSTEM.DIHEDRAL>
1.27694

>  <SCORE.SYSTEM.POLAR>
-1.74681

>  <SCORE.SYSTEM.VDW>
-0.157006

>  <SCORE.SYSTEM.norm>
-0.227403

>  <SCORE.heavy>
24

>  <SCORE.norm>
-0.392582

$$$$
InterBioScreen STOCK5S-13559
  rDOCK(R)          3D
libRbt.so/2021.1/901 2021/07/19
 26 28  0  0  0  0  0  0  0  0999 V2000
   -4.0562    5.2681   11.9732 S   0  0  0  0  0  0
   -4.6874    6.4085   10.8676 C   0  0  0  0  0  0
   -4.7604    4.0473   11.0018 C   0  0  0  0  0  0
   -5.4051    4.4928    9.9470 N   0  0  0  0  0  0
   -4.5004    7.7706   11.0142 N   0  0  0  0  0  0
   -5.3615    5.8731    9.8702 N   0  0  0  0  0  0
   -3.8056    8.4087   12.0327 C   0  0  0  0  0  0
   -3.8256    9.9058   11.8434 C   0  0  0  0  0  0
   -4.8146   10.6039   11.1903 C   0  0  0  0  0  0
   -4.7634   11.9958   11.0901 C   0  0  0  0  0  0
   -4.6444    2.5956   11.3341 C   0  0  0  0  0  0
   -3.2265    7.9086   12.9916 O   0  0  0  0  0  0
   -3.7116   12.7034   11.6707 C   0  0  0  0  0  0
   -2.7576   10.6290   12.4619 C   0  0  0  0  0  0
   -2.7106   12.0196   12.3580 C   0  0  0  0  0  0
   -3.9659    2.1155   12.4670 C   0  0  0  0  0  0
   -5.2403    1.6496   10.4789 C   0  0  0  0  0  0
   -4.4835   -0.1726   11.8722 C   0  0  0  0  0  0
   -5.7133   12.7625   10.4322 O   0  0  0  0  0  0
   -3.8873    0.7433   12.7319 C   0  0  0  0  0  0
   -5.1606    0.2799   10.7454 C   0  0  0  0  0  0
   -4.3775   -1.8363   12.2109 Cl  0  0  0  0  0  0
   -3.7494   14.0747   11.5306 O   0  0  0  0  0  0
   -6.8006   12.0784    9.8209 C   0  0  0  0  0  0
   -2.6919   14.8226   12.1179 C   0  0  0  0  0  0
   -4.9119    8.3626   10.3070 H   0  0  0  0  0  0
  1  2  1  0  0  0
  1  3  1  0  0  0
  2  5  1  0  0  0
  2  6  2  0  0  0
  3  4  2  0  0  0
  3 11  1  0  0  0
  4  6  1  0  0  0
  5  7  1  0  0  0
  5 26  1  0  0  0
  7  8  1  0  0  0
  7 12  2  0  0  0
  8  9  1  0  0  0
  8 14  2  0  0  0
  9 10  2  0  0  0
 10 13  1  0  0  0
 10 19  1  0  0  0
 11 16  2  0  0  0
 11 17  1  0  0  0
 13 15  2  0  0  0
 13 23  1  0  0  0
 14 15  1  0  0  0
 16 20  1  0  0  0
 17 21  2  0  0  0
 18 20  2  0  0  0
 18 21  1  0  0  0
 18 22  1  0  0  0
 19 24  1  0  0  0
 23 25  1  0  0  0
M  END
>  <$CLUSTER>
563

>  <CHROM.0>
176.24228684,70.35873312,73.83804875

>  <CHROM.1>
-4.35797384,6.63387669,11.50219159,-1.61763517,-0.75499411,-0.05580276

>  <INDEX>
366816

>  <Name>
InterBioScreen STOCK5S-13559

>  <RI>
-2.07807e+09

>  <Rbt.Current_Directory>
/aloy/home/acomajuncosa/PocketVec_v2/GitLab_repo

>  <Rbt.Executable>
rbdock ($Id: //depot/dev/client3/rdock/2021.1/src/exe/rbdock.cxx#4 $)

>  <Rbt.Library>
libRbt.so (2021.1, Build901 2021/07/19)

>  <Rbt.Parameter_File>
examples/2_pocketvec/rDock_results/dock.prm

>  <Rbt.Receptor>
examples/2_pocketvec/rDock_results/st_parameters.prm

>  <SCORE>
-6.42902

>  <SCORE.INTER>
-4.00653

>  <SCORE.INTER.CONST>
1

>  <SCORE.INTER.POLAR>
0

>  <SCORE.INTER.REPUL>
0

>  <SCORE.INTER.ROT>
5

>  <SCORE.INTER.VDW>
-14.4065

>  <SCORE.INTER.norm>
-0.160261

>  <SCORE.INTRA>
5.4197e-12

>  <SCORE.INTRA.DIHEDRAL>
6.26166e-13

>  <SCORE.INTRA.DIHEDRAL.0>
2.42788

>  <SCORE.INTRA.POLAR>
0

>  <SCORE.INTRA.POLAR.0>
0

>  <SCORE.INTRA.REPUL>
2.66523e-14

>  <SCORE.INTRA.REPUL.0>
0.0186787

>  <SCORE.INTRA.VDW>
4.97336e-12

>  <SCORE.INTRA.VDW.0>
3.90931

>  <SCORE.INTRA.norm>
2.16788e-13

>  <SCORE.RESTR>
0

>  <SCORE.RESTR.CAVITY>
0

>  <SCORE.RESTR.norm>
0

>  <SCORE.SYSTEM>
-2.42249

>  <SCORE.SYSTEM.CONST>
0

>  <SCORE.SYSTEM.DIHEDRAL>
1.50925

>  <SCORE.SYSTEM.POLAR>
-0.750396

>  <SCORE.SYSTEM.VDW>
-0.625773

>  <SCORE.SYSTEM.norm>
-0.0968997

>  <SCORE.heavy>
25

>  <SCORE.norm>
-0.257161

$$$$
Otava 0120630218
  rDOCK(R)          3D
libRbt.so/2021.1/901 2021/07/19
 22 23  0  0  0  0  0  0  0  0999 V2000
   -4.4895    2.1569   14.4834 C   0  0  0  0  0  0
   -5.5031    2.4089   15.5153 C   0  0  0  0  0  0
   -4.8539    2.4891   13.2185 N   0  0  0  0  0  0
   -4.0284    2.3463   12.0308 C   0  0  0  0  0  0
   -4.8812    2.0652   10.7967 C   0  0  0  0  0  0
   -5.9524    1.4104   16.3791 C   0  0  0  0  0  0
   -3.3874    1.7004   14.7686 O   0  0  0  0  0  0
   -3.1729    3.5931   11.8303 C   0  0  0  0  0  0
   -5.2073    3.0057    9.9946 O   0  0  0  0  0  0
   -5.2489    0.8230   10.6203 O   0  5  0  0  0  0
   -5.3914   -0.3979   16.2598 Br  0  0  0  0  0  0
   -2.1660    3.5183   10.6970 C   0  0  0  0  0  0
   -6.0005    3.7146   15.6362 C   0  0  0  0  0  0
   -6.8985    1.7203   17.3647 C   0  0  0  0  0  0
   -2.5518    3.8679    9.4061 C   0  0  0  0  0  0
   -0.9031    2.9801   10.9301 C   0  0  0  0  0  0
   -6.9426    4.0174   16.6191 C   0  0  0  0  0  0
   -7.3899    3.0213   17.4838 C   0  0  0  0  0  0
    0.0031    2.8557    9.8759 C   0  0  0  0  0  0
   -1.6446    3.7418    8.3530 C   0  0  0  0  0  0
   -0.3683    3.2368    8.5888 C   0  0  0  0  0  0
   -5.7811    2.8696   13.0911 H   0  0  0  0  0  0
  1  2  1  0  0  0
  1  3  1  0  0  0
  1  7  2  0  0  0
  2  6  2  0  0  0
  2 13  1  0  0  0
  3  4  1  0  0  0
  3 22  1  0  0  0
  4  5  1  0  0  0
  4  8  1  0  0  0
  5  9  2  0  0  0
  5 10  1  0  0  0
  6 11  1  0  0  0
  6 14  1  0  0  0
  8 12  1  0  0  0
 12 15  1  0  0  0
 12 16  2  0  0  0
 13 17  2  0  0  0
 14 18  2  0  0  0
 15 20  2  0  0  0
 16 19  1  0  0  0
 17 18  1  0  0  0
 19 21  2  0  0  0
 20 21  1  0  0  0
M  END
>  <$CLUSTER>
860

>  <CHROM.0>
175.95314457,172.42290518,73.77455641

>  <CHROM.1>
-4.39207847,1.99832934,13.50555130,2.36844957,-0.82776042,2.51723198

>  <INDEX>
431950

>  <Name>
Otava 0120630218

>  <RI>
-2.07807e+09

>  <Rbt.Current_Directory>
/aloy/home/acomajuncosa/PocketVec_v2/GitLab_repo

>  <Rbt.Executable>
rbdock ($Id: //depot/dev/client3/rdock/2021.1/src/exe/rbdock.cxx#4 $)

>  <Rbt.Library>
libRbt.so (2021.1, Build901 2021/07/19)

>  <Rbt.Parameter_File>
examples/2_pocketvec/rDock_results/dock.prm

>  <Rbt.Receptor>
examples/2_pocketvec/rDock_results/st_parameters.prm

>  <SCORE>
-7.08437

>  <SCORE.INTER>
-1.62746

>  <SCORE.INTER.CONST>
1

>  <SCORE.INTER.POLAR>
-0.295454

>  <SCORE.INTER.REPUL>
0.853552

>  <SCORE.INTER.ROT>
5

>  <SCORE.INTER.VDW>
-15.2907

>  <SCORE.INTER.norm>
-0.0774981

>  <SCORE.INTRA>
9.95204e-13

>  <SCORE.INTRA.DIHEDRAL>
8.31335e-13

>  <SCORE.INTRA.DIHEDRAL.0>
12.1103

>  <SCORE.INTRA.POLAR>
0

>  <SCORE.INTRA.POLAR.0>
0

>  <SCORE.INTRA.REPUL>
0

>  <SCORE.INTRA.REPUL.0>
0

>  <SCORE.INTRA.VDW>
5.79536e-13

>  <SCORE.INTRA.VDW.0>
-2.264

>  <SCORE.INTRA.norm>
4.73907e-14

>  <SCORE.RESTR>
0

>  <SCORE.RESTR.CAVITY>
0

>  <SCORE.RESTR.norm>
0

>  <SCORE.SYSTEM>
-5.45691

>  <SCORE.SYSTEM.CONST>
0

>  <SCORE.SYSTEM.DIHEDRAL>
1.27134

>  <SCORE.SYSTEM.POLAR>
-1.74486

>  <SCORE.SYSTEM.VDW>
-0.160054

>  <SCORE.SYSTEM.norm>
-0.259853

>  <SCORE.heavy>
21

>  <SCORE.norm>
-0.337351

$$$$
Asinex ASN 02617640
  rDOCK(R)          3D
libRbt.so/2021.1/901 2021/07/19
 28 30  0  0  0  0  0  0  0  0999 V2000
   -0.6038    3.6617    9.4915 C   0  0  0  0  0  0
   -3.2362    6.8109   12.9117 N   0  0  0  0  0  0
   -0.9306    4.1484    8.2393 C   0  0  0  0  0  0
   -3.5536    7.4317   11.7395 C   0  0  0  0  0  0
   -3.5086    6.5669   10.7523 N   0  0  0  0  0  0
   -3.0053    5.5429   12.5520 C   0  0  0  0  0  0
    1.0673    3.3579    9.6248 S   0  0  0  0  0  0
   -3.1534    5.3461   11.2856 N   0  0  0  0  0  0
    0.2089    4.2683    7.3911 C   0  0  0  0  0  0
    1.3648    3.8703    8.0223 C   0  0  0  0  0  0
   -1.4769    3.4294   10.5468 N   0  0  0  0  0  0
   -2.2610    4.4944    7.8356 C   0  0  0  0  0  0
   -3.3387    4.7734    7.5114 N   0  0  0  0  0  0
   -2.5379    4.2849   13.7726 S   0  0  0  0  0  0
   -1.1479    2.9408   11.8066 C   0  0  0  0  0  0
   -3.8733    8.8782   11.5227 C   0  0  0  0  0  0
   -0.0463    2.6189   12.2393 O   0  0  0  0  0  0
   -2.3759    2.8275   12.6765 C   0  0  0  0  0  0
   -3.0993    9.8973   12.0947 C   0  0  0  0  0  0
   -4.9697    9.2310   10.7235 C   0  0  0  0  0  0
   -3.1811    7.4377   14.2073 C   0  0  0  0  0  0
    0.1266    4.7509    6.0404 C   0  0  0  0  0  0
   -5.2995   10.5731   10.5188 C   0  0  0  0  0  0
   -3.4297   11.2395   11.8881 C   0  0  0  0  0  0
   -4.5297   11.5759   11.1037 C   0  0  0  0  0  0
    2.6897    3.8685    7.4396 C   0  0  0  0  0  0
   -4.8820   13.0122   10.8908 C   0  0  0  0  0  0
   -2.4521    3.6366   10.3819 H   0  0  0  0  0  0
  1  3  2  0  0  0
  1  7  1  0  0  0
  1 11  1  0  0  0
  2  4  1  0  0  0
  2  6  1  0  0  0
  2 21  1  0  0  0
  3  9  1  0  0  0
  3 12  1  0  0  0
  4  5  2  0  0  0
  4 16  1  0  0  0
  5  8  1  0  0  0
  6  8  2  0  0  0
  6 14  1  0  0  0
  7 10  1  0  0  0
  9 10  2  0  0  0
  9 22  1  0  0  0
 10 26  1  0  0  0
 11 15  1  0  0  0
 11 28  1  0  0  0
 12 13  3  0  0  0
 14 18  1  0  0  0
 15 17  2  0  0  0
 15 18  1  0  0  0
 16 19  1  0  0  0
 16 20  2  0  0  0
 19 24  2  0  0  0
 20 23  1  0  0  0
 23 25  2  0  0  0
 24 25  1  0  0  0
 25 27  1  0  0  0
M  END
>  <$CLUSTER>
241

>  <CHROM.0>
171.77521908,172.30841419,74.74941284

>  <CHROM.1>
-2.03147852,5.93651738,10.67393612,-0.26588959,0.98290336,-0.88620546

>  <INDEX>
127199

>  <Name>
Asinex ASN 02617640

>  <RI>
-2.07807e+09

>  <Rbt.Current_Directory>
/aloy/home/acomajuncosa/PocketVec_v2/GitLab_repo

>  <Rbt.Executable>
rbdock ($Id: //depot/dev/client3/rdock/2021.1/src/exe/rbdock.cxx#4 $)

>  <Rbt.Library>
libRbt.so (2021.1, Build901 2021/07/19)

>  <Rbt.Parameter_File>
examples/2_pocketvec/rDock_results/dock.prm

>  <Rbt.Receptor>
examples/2_pocketvec/rDock_results/st_parameters.prm

>  <SCORE>
-9.1676

>  <SCORE.INTER>
-3.71895

>  <SCORE.INTER.CONST>
1

>  <SCORE.INTER.POLAR>
-0.247927

>  <SCORE.INTER.REPUL>
0

>  <SCORE.INTER.ROT>
5

>  <SCORE.INTER.VDW>
-13.276

>  <SCORE.INTER.norm>
-0.137739

>  <SCORE.INTRA>
-9.44e-13

>  <SCORE.INTRA.DIHEDRAL>
6.50147e-13

>  <SCORE.INTRA.DIHEDRAL.0>
8.251

>  <SCORE.INTRA.POLAR>
-1.26787e-13

>  <SCORE.INTRA.POLAR.0>
-0.306565

>  <SCORE.INTRA.REPUL>
0

>  <SCORE.INTRA.REPUL.0>
0

>  <SCORE.INTRA.VDW>
-8.37996e-13

>  <SCORE.INTRA.VDW.0>
-2.77061

>  <SCORE.INTRA.norm>
-3.4963e-14

>  <SCORE.RESTR>
0

>  <SCORE.RESTR.CAVITY>
0

>  <SCORE.RESTR.norm>
0

>  <SCORE.SYSTEM>
-5.44865

>  <SCORE.SYSTEM.CONST>
0

>  <SCORE.SYSTEM.DIHEDRAL>
1.48498

>  <SCORE.SYSTEM.POLAR>
-1.75284

>  <SCORE.SYSTEM.VDW>
-0.2315

>  <SCORE.SYSTEM.norm>
-0.201802

>  <SCORE.heavy>
27

>  <SCORE.norm>
-0.339541

$$$$
Chem T&I AMSACS-08601
  rDOCK(R)          3D
libRbt.so/2021.1/901 2021/07/19
 25 27  0  0  0  0  0  0  0  0999 V2000
   -4.0831    0.5346   10.4873 S   0  0  0  0  0  0
   -5.7690   -0.6461   17.2832 N   0  0  0  0  0  0
   -5.4429    1.5867   17.5896 C   0  0  0  0  0  0
   -5.1447    0.4688   16.8506 N   0  0  0  0  0  0
   -6.3170    1.1573   18.5647 C   0  0  0  0  0  0
   -6.4801   -0.2187   18.3273 C   0  0  0  0  0  0
   -3.0512    1.9889   10.5660 C   0  0  0  0  0  0
   -1.7612    1.8748   11.0805 C   0  0  0  0  0  0
   -5.0442    0.7606    9.4139 O   0  0  0  0  0  0
   -3.1933   -0.6217   10.4243 O   0  0  0  0  0  0
   -4.8458    0.5959   11.9516 N   0  0  0  0  0  0
   -0.9549    3.0112   11.1382 C   0  0  0  0  0  0
   -3.5449    3.2016   10.1044 C   0  0  0  0  0  0
   -1.4385    4.2378   10.6828 C   0  0  0  0  0  0
   -2.7313    4.3328   10.1666 C   0  0  0  0  0  0
   -7.0080    2.0229   19.7251 Cl  0  0  0  0  0  0
   -4.2648    0.3730   15.7018 C   0  0  0  0  0  0
   -4.8897    2.9358   17.3187 C   0  0  0  0  0  0
   -5.0118    0.5353   14.3902 C   0  0  0  0  0  0
   -4.1000    0.4276   13.1914 C   0  0  0  0  0  0
    0.3637    2.9328   11.6607 C   0  0  0  0  0  0
   -0.5996    5.3865   10.7486 C   0  0  0  0  0  0
    1.1746    4.0665   11.7188 C   0  0  0  0  0  0
    0.6937    5.2915   11.2639 C   0  0  0  0  0  0
   -5.5501   -0.1276   11.9395 H   0  0  0  0  0  0
  1  7  1  0  0  0
  1  9  2  0  0  0
  1 10  2  0  0  0
  1 11  1  0  0  0
  2  4  1  0  0  0
  2  6  2  0  0  0
  3  4  1  0  0  0
  3  5  2  0  0  0
  3 18  1  0  0  0
  4 17  1  0  0  0
  5  6  1  0  0  0
  5 16  1  0  0  0
  7  8  2  0  0  0
  7 13  1  0  0  0
  8 12  1  0  0  0
 11 20  1  0  0  0
 11 25  1  0  0  0
 12 14  2  0  0  0
 12 21  1  0  0  0
 13 15  2  0  0  0
 14 15  1  0  0  0
 14 22  1  0  0  0
 17 19  1  0  0  0
 19 20  1  0  0  0
 21 23  2  0  0  0
 22 24  2  0  0  0
 23 24  1  0  0  0
M  END
>  <$CLUSTER>
787

>  <CHROM.0>
2.68434782,172.00892168,73.69113488

>  <CHROM.1>
-3.77349461,1.79572731,13.57371322,0.81115589,-0.77273826,-1.92479018

>  <INDEX>
516253

>  <Name>
Chem T&I AMSACS-08601

>  <RI>
-2.07807e+09

>  <Rbt.Current_Directory>
/aloy/home/acomajuncosa/PocketVec_v2/GitLab_repo

>  <Rbt.Executable>
rbdock ($Id: //depot/dev/client3/rdock/2021.1/src/exe/rbdock.cxx#4 $)

>  <Rbt.Library>
libRbt.so (2021.1, Build901 2021/07/19)

>  <Rbt.Parameter_File>
examples/2_pocketvec/rDock_results/dock.prm

>  <Rbt.Receptor>
examples/2_pocketvec/rDock_results/st_parameters.prm

>  <SCORE>
18.3427

>  <SCORE.INTER>
23.5812

>  <SCORE.INTER.CONST>
1

>  <SCORE.INTER.POLAR>
-0.838281

>  <SCORE.INTER.REPUL>
0.881632

>  <SCORE.INTER.ROT>
6

>  <SCORE.INTER.VDW>
10.6232

>  <SCORE.INTER.norm>
0.98255

>  <SCORE.INTRA>
2.43583e-13

>  <SCORE.INTRA.DIHEDRAL>
7.70051e-13

>  <SCORE.INTRA.DIHEDRAL.0>
3.74513

>  <SCORE.INTRA.POLAR>
0

>  <SCORE.INTRA.POLAR.0>
0

>  <SCORE.INTRA.REPUL>
0

>  <SCORE.INTRA.REPUL.0>
0

>  <SCORE.INTRA.VDW>
-1.41442e-13

>  <SCORE.INTRA.VDW.0>
-1.80853

>  <SCORE.INTRA.norm>
1.01493e-14

>  <SCORE.RESTR>
0.370218

>  <SCORE.RESTR.CAVITY>
0.370218

>  <SCORE.RESTR.norm>
0.0154258

>  <SCORE.SYSTEM>
-5.60876

>  <SCORE.SYSTEM.CONST>
0

>  <SCORE.SYSTEM.DIHEDRAL>
1.26649

>  <SCORE.SYSTEM.POLAR>
-1.74417

>  <SCORE.SYSTEM.VDW>
-0.311814

>  <SCORE.SYSTEM.norm>
-0.233698

>  <SCORE.heavy>
24

>  <SCORE.norm>
0.764278

$$$$
Tripos 1557-13590
  rDOCK(R)          3D
libRbt.so/2021.1/901 2021/07/19
 27 29  0  0  0  0  0  0  0  0999 V2000
   -3.2868    3.3999    9.9658 S   0  0  0  0  0  0
   -4.3745    3.7943   11.2311 N   0  0  0  0  0  0
   -1.7721    4.0579   10.6274 C   0  0  0  0  0  0
   -3.6295    4.2117    8.8130 O   0  0  0  0  0  0
   -3.1314    1.9657    9.8375 O   0  0  0  0  0  0
    0.6658    5.0459   11.5896 C   0  0  0  0  0  0
    1.9553    5.6048   12.0867 C   0  0  0  0  0  0
   -1.3976    5.3877   10.3749 C   0  0  0  0  0  0
   -0.8995    3.2176   11.3448 C   0  0  0  0  0  0
    2.2413    6.7787   11.8566 O   0  0  0  0  0  0
   -0.1850    5.8800   10.8636 C   0  0  0  0  0  0
    0.3096    3.7169   11.8306 C   0  0  0  0  0  0
   -4.2962    3.0363   12.4512 C   0  0  0  0  0  0
   -4.0876    1.5921   14.8289 C   0  0  0  0  0  0
   -3.9899    0.8072   16.1297 C   0  0  0  0  0  0
   -3.8371    3.6651   13.6116 C   0  0  0  0  0  0
   -4.6511    1.6849   12.4800 C   0  0  0  0  0  0
   -4.5464    0.9655   13.6710 C   0  0  0  0  0  0
   -3.7338    2.9402   14.8005 C   0  0  0  0  0  0
   -5.2805    0.8808   16.9317 C   0  0  0  0  0  0
    2.8892    4.7195   12.8693 C   0  0  0  0  0  0
   -6.2930   -0.0628   16.7272 C   0  0  0  0  0  0
   -5.4797    1.9109   17.8556 C   0  0  0  0  0  0
   -6.6708    1.9868   18.5785 C   0  0  0  0  0  0
   -7.4837    0.0160   17.4503 C   0  0  0  0  0  0
   -7.6705    1.0393   18.3764 C   0  0  0  0  0  0
   -5.0502    4.5367   11.1232 H   0  0  0  0  0  0
  1  2  1  0  0  0
  1  3  1  0  0  0
  1  4  2  0  0  0
  1  5  2  0  0  0
  2 13  1  0  0  0
  2 27  1  0  0  0
  3  8  2  0  0  0
  3  9  1  0  0  0
  6  7  1  0  0  0
  6 11  2  0  0  0
  6 12  1  0  0  0
  7 10  2  0  0  0
  7 21  1  0  0  0
  8 11  1  0  0  0
  9 12  2  0  0  0
 13 16  1  0  0  0
 13 17  2  0  0  0
 14 15  1  0  0  0
 14 18  2  0  0  0
 14 19  1  0  0  0
 15 20  1  0  0  0
 16 19  2  0  0  0
 17 18  1  0  0  0
 20 22  1  0  0  0
 20 23  2  0  0  0
 22 25  2  0  0  0
 23 24  1  0  0  0
 24 26  2  0  0  0
 25 26  1  0  0  0
M  END
>  <$CLUSTER>
723

>  <CHROM.0>
3.95189178,172.82300865,73.46624862

>  <CHROM.1>
-2.99494423,3.06546959,13.09632215,0.76635528,-0.44499329,-1.41772932

>  <INDEX>
472375

>  <Name>
Tripos 1557-13590

>  <RI>
-2.07807e+09

>  <Rbt.Current_Directory>
/aloy/home/acomajuncosa/PocketVec_v2/GitLab_repo

>  <Rbt.Executable>
rbdock ($Id: //depot/dev/client3/rdock/2021.1/src/exe/rbdock.cxx#4 $)

>  <Rbt.Library>
libRbt.so (2021.1, Build901 2021/07/19)

>  <Rbt.Parameter_File>
examples/2_pocketvec/rDock_results/dock.prm

>  <Rbt.Receptor>
examples/2_pocketvec/rDock_results/st_parameters.prm

>  <SCORE>
-15.0697

>  <SCORE.INTER>
-9.46757

>  <SCORE.INTER.CONST>
1

>  <SCORE.INTER.POLAR>
-0.36802

>  <SCORE.INTER.REPUL>
0

>  <SCORE.INTER.ROT>
6

>  <SCORE.INTER.VDW>
-19.6163

>  <SCORE.INTER.norm>
-0.364137

>  <SCORE.INTRA>
-1.39799e-12

>  <SCORE.INTRA.DIHEDRAL>
-1.23457e-12

>  <SCORE.INTRA.DIHEDRAL.0>
15.0384

>  <SCORE.INTRA.POLAR>
0

>  <SCORE.INTRA.POLAR.0>
0

>  <SCORE.INTRA.REPUL>
0

>  <SCORE.INTRA.REPUL.0>
0

>  <SCORE.INTRA.VDW>
-7.80709e-13

>  <SCORE.INTRA.VDW.0>
-2.46225

>  <SCORE.INTRA.norm>
-5.3769e-14

>  <SCORE.RESTR>
0

>  <SCORE.RESTR.CAVITY>
0

>  <SCORE.RESTR.norm>
0

>  <SCORE.SYSTEM>
-5.60212

>  <SCORE.SYSTEM.CONST>
0

>  <SCORE.SYSTEM.DIHEDRAL>
1.19055

>  <SCORE.SYSTEM.POLAR>
-1.74232

>  <SCORE.SYSTEM.VDW>
-0.273511

>  <SCORE.SYSTEM.norm>
-0.215466

>  <SCORE.heavy>
26

>  <SCORE.norm>
-0.579604

$$$$
EMC Microcollections 013A0485
  rDOCK(R)          3D
libRbt.so/2021.1/901 2021/07/19
 25 26  0  0  0  0  0  0  0  0999 V2000
   -4.0721    2.7586   12.2919 C   0  0  0  0  0  0
   -4.4872    1.5371   11.8244 N   0  0  0  0  0  0
   -3.5412    1.0302   11.0665 C   0  0  0  0  0  0
   -2.1265    1.9802   10.8788 S   0  0  0  0  0  0
   -4.9562    3.5823   13.1887 C   0  0  0  0  0  0
   -2.8255    3.1742   11.8921 C   0  0  0  0  0  0
   -6.1626    2.9571   13.4565 N   0  0  0  0  0  0
   -4.6061    4.6756   13.6235 O   0  0  0  0  0  0
   -3.6439   -0.3120   10.3808 C   0  0  0  0  0  0
   -7.1840    3.5485   14.2997 C   0  0  0  0  0  0
   -6.5151    2.6502   18.4801 C   0  0  0  0  0  0
   -6.9457    3.2340   15.7646 C   0  0  0  0  0  0
   -4.9935   -0.5214    9.7743 N   0  3  0  0  0  0
   -6.2574    2.3146   20.1283 Cl  0  0  0  0  0  0
   -6.1207    3.8842   17.9597 C   0  0  0  0  0  0
   -7.1158    1.7044   17.6494 C   0  0  0  0  0  0
   -6.3329    4.1741   16.6087 C   0  0  0  0  0  0
   -7.3277    1.9928   16.2991 C   0  0  0  0  0  0
   -3.3921   -1.4541   11.3602 C   0  0  0  0  0  0
   -3.3244   -2.8684   10.7404 C   0  0  0  0  0  0
   -2.9438   -3.9352   11.7570 C   0  0  0  0  0  0
   -6.3385    2.0506   13.0473 H   0  0  0  0  0  0
   -5.6935   -0.5206   10.5023 H   0  0  0  0  0  0
   -5.0110   -1.4077    9.2909 H   0  0  0  0  0  0
   -5.1877    0.2234    9.1197 H   0  0  0  0  0  0
  1  2  1  0  0  0
  1  5  1  0  0  0
  1  6  2  0  0  0
  2  3  2  0  0  0
  3  4  1  0  0  0
  3  9  1  0  0  0
  4  6  1  0  0  0
  5  7  1  0  0  0
  5  8  2  0  0  0
  7 10  1  0  0  0
  7 22  1  0  0  0
  9 13  1  0  0  0
  9 19  1  0  0  0
 10 12  1  0  0  0
 11 14  1  0  0  0
 11 15  2  0  0  0
 11 16  1  0  0  0
 12 17  2  0  0  0
 12 18  1  0  0  0
 13 23  1  0  0  0
 13 24  1  0  0  0
 13 25  1  0  0  0
 15 17  1  0  0  0
 16 18  2  0  0  0
 19 20  1  0  0  0
 20 21  1  0  0  0
M  END
>  <$CLUSTER>
344

>  <CHROM.0>
1.76712178,171.14520697,75.62240188

>  <CHROM.1>
-4.89926593,1.71107160,13.95500410,-0.17409066,1.18551139,-0.22259398

>  <INDEX>
221508

>  <Name>
EMC Microcollections 013A0485

>  <RI>
-2.07807e+09

>  <Rbt.Current_Directory>
/aloy/home/acomajuncosa/PocketVec_v2/GitLab_repo

>  <Rbt.Executable>
rbdock ($Id: //depot/dev/client3/rdock/2021.1/src/exe/rbdock.cxx#4 $)

>  <Rbt.Library>
libRbt.so (2021.1, Build901 2021/07/19)

>  <Rbt.Parameter_File>
examples/2_pocketvec/rDock_results/dock.prm

>  <Rbt.Receptor>
examples/2_pocketvec/rDock_results/st_parameters.prm

>  <SCORE>
39.9252

>  <SCORE.INTER>
45.2274

>  <SCORE.INTER.CONST>
1

>  <SCORE.INTER.POLAR>
-0.340794

>  <SCORE.INTER.REPUL>
0.235392

>  <SCORE.INTER.ROT>
6

>  <SCORE.INTER.VDW>
33.8091

>  <SCORE.INTER.norm>
2.15369

>  <SCORE.INTRA>
-5.99965e-14

>  <SCORE.INTRA.DIHEDRAL>
3.8991e-13

>  <SCORE.INTRA.DIHEDRAL.0>
3.26392

>  <SCORE.INTRA.POLAR>
-2.47136e-13

>  <SCORE.INTRA.POLAR.0>
-0.0959042

>  <SCORE.INTRA.REPUL>
0

>  <SCORE.INTRA.REPUL.0>
0

>  <SCORE.INTRA.VDW>
5.8531e-13

>  <SCORE.INTRA.VDW.0>
-2.37704

>  <SCORE.INTRA.norm>
-2.85697e-15

>  <SCORE.RESTR>
0.28675

>  <SCORE.RESTR.CAVITY>
0.28675

>  <SCORE.RESTR.norm>
0.0136548

>  <SCORE.SYSTEM>
-5.58891

>  <SCORE.SYSTEM.CONST>
0

>  <SCORE.SYSTEM.DIHEDRAL>
1.58159

>  <SCORE.SYSTEM.POLAR>
-1.7599

>  <SCORE.SYSTEM.VDW>
-0.39605

>  <SCORE.SYSTEM.norm>
-0.266139

>  <SCORE.heavy>
21

>  <SCORE.norm>
1.9012

$$$$
Asinex ASN 06601079
  rDOCK(R)          3D
libRbt.so/2021.1/901 2021/07/19
 31 34  0  0  0  0  0  0  0  0999 V2000
    1.3138    4.2761   10.3492 C   0  0  0  0  0  0
   -2.0543    5.6452   14.1594 N   0  0  0  0  0  0
   -2.3118    4.7244   13.2643 C   0  0  0  0  0  0
   -3.6506    4.4683   13.1653 N   0  0  0  0  0  0
   -0.0632    4.0661   10.2429 N   0  0  0  0  0  0
    1.7368    5.0745   11.3627 N   0  0  0  0  0  0
   -3.2811    5.9919   14.6668 C   0  0  0  0  0  0
   -4.2862    5.2755   14.0648 C   0  0  0  0  0  0
   -1.3029    4.0146   12.3979 C   0  0  0  0  0  0
    2.4979    3.6304    9.3457 S   0  0  0  0  0  0
   -1.0421    4.7629   11.0982 C   0  0  0  0  0  0
   -0.6491    3.1305    9.2619 C   0  0  0  0  0  0
    2.8159    5.6531   11.9973 C   0  0  0  0  0  0
    4.1181    5.4349   11.5433 C   0  0  0  0  0  0
   -1.0544    3.8255    7.9694 C   0  0  0  0  0  0
    5.2114    6.0240   12.1900 C   0  0  0  0  0  0
   -3.6034    6.9384   15.6652 C   0  0  0  0  0  0
    3.7272    7.0694   13.7701 C   0  0  0  0  0  0
   -5.6453    5.4273   14.3864 C   0  0  0  0  0  0
    2.6373    6.4805   13.1211 C   0  0  0  0  0  0
    5.0185    6.8394   13.3026 C   0  0  0  0  0  0
    6.5973    5.7738   11.6834 C   0  0  0  0  0  0
   -0.2148    3.7846    6.8534 C   0  0  0  0  0  0
   -2.2569    4.5396    7.9049 C   0  0  0  0  0  0
   -4.9511    7.1103   16.0065 C   0  0  0  0  0  0
   -5.9522    6.3659   15.3772 C   0  0  0  0  0  0
   -2.6323    5.1769    6.7195 C   0  0  0  0  0  0
   -0.5919    4.4242    5.6682 C   0  0  0  0  0  0
   -1.8001    5.1171    5.6016 C   0  0  0  0  0  0
   -4.0886    3.8048   12.5428 H   0  0  0  0  0  0
    0.9111    5.3699   11.8642 H   0  0  0  0  0  0
  1  5  1  0  0  0
  1  6  1  0  0  0
  1 10  2  0  0  0
  2  3  2  0  0  0
  2  7  1  0  0  0
  3  4  1  0  0  0
  3  9  1  0  0  0
  4  8  1  0  0  0
  4 30  1  0  0  0
  5 11  1  0  0  0
  5 12  1  0  0  0
  6 13  1  0  0  0
  6 31  1  0  0  0
  7  8  2  0  0  0
  7 17  1  0  0  0
  8 19  1  0  0  0
  9 11  1  0  0  0
 12 15  1  0  0  0
 13 14  2  0  0  0
 13 20  1  0  0  0
 14 16  1  0  0  0
 15 23  1  0  0  0
 15 24  2  0  0  0
 16 21  2  0  0  0
 16 22  1  0  0  0
 17 25  2  0  0  0
 18 20  2  0  0  0
 18 21  1  0  0  0
 19 26  2  0  0  0
 23 28  2  0  0  0
 24 27  1  0  0  0
 25 26  1  0  0  0
 27 29  2  0  0  0
 28 29  1  0  0  0
M  END
>  <$CLUSTER>
257

>  <CHROM.0>
-0.59895521,170.59186163,73.87134067

>  <CHROM.1>
-0.24881586,5.12164594,11.38310306,0.53252259,-0.05712537,-1.85189592

>  <INDEX>
162964

>  <Name>
Asinex ASN 06601079

>  <RI>
-2.07807e+09

>  <Rbt.Current_Directory>
/aloy/home/acomajuncosa/PocketVec_v2/GitLab_repo

>  <Rbt.Executable>
rbdock ($Id: //depot/dev/client3/rdock/2021.1/src/exe/rbdock.cxx#4 $)

>  <Rbt.Library>
libRbt.so (2021.1, Build901 2021/07/19)

>  <Rbt.Parameter_File>
examples/2_pocketvec/rDock_results/dock.prm

>  <Rbt.Receptor>
examples/2_pocketvec/rDock_results/st_parameters.prm

>  <SCORE>
-15.1861

>  <SCORE.INTER>
-9.58188

>  <SCORE.INTER.CONST>
1

>  <SCORE.INTER.POLAR>
-0.753857

>  <SCORE.INTER.REPUL>
0.0395854

>  <SCORE.INTER.ROT>
6

>  <SCORE.INTER.VDW>
-18.6167

>  <SCORE.INTER.norm>
-0.33041

>  <SCORE.INTRA>
9.68114e-14

>  <SCORE.INTRA.DIHEDRAL>
-4.65405e-13

>  <SCORE.INTRA.DIHEDRAL.0>
6.85377

>  <SCORE.INTRA.POLAR>
0

>  <SCORE.INTRA.POLAR.0>
0

>  <SCORE.INTRA.REPUL>
0

>  <SCORE.INTRA.REPUL.0>
0

>  <SCORE.INTRA.VDW>
3.29514e-13

>  <SCORE.INTRA.VDW.0>
-2.34759

>  <SCORE.INTRA.norm>
3.33833e-15

>  <SCORE.RESTR>
0

>  <SCORE.RESTR.CAVITY>
0

>  <SCORE.RESTR.norm>
0

>  <SCORE.SYSTEM>
-5.60423

>  <SCORE.SYSTEM.CONST>
0

>  <SCORE.SYSTEM.DIHEDRAL>
1.40038

>  <SCORE.SYSTEM.POLAR>
-1.74566

>  <SCORE.SYSTEM.VDW>
-0.369192

>  <SCORE.SYSTEM.norm>
-0.193249

>  <SCORE.heavy>
29

>  <SCORE.norm>
-0.523659

$$$$
Cerep CER0116166
  rDOCK(R)          3D
libRbt.so/2021.1/901 2021/07/19
 26 29  0  0  0  0  0  0  0  0999 V2000
   -3.9020    2.7988   14.4472 C   0  0  0  0  0  0
   -4.5676    1.5511   14.5318 C   0  0  0  0  0  0
   -3.0859    3.3358   13.3869 C   0  0  0  0  0  0
   -4.6402    0.5162   13.5080 C   0  0  0  0  0  0
   -4.0768    3.5143   15.5673 N   0  0  0  0  0  0
   -2.5884    2.5894   12.3551 O   0  0  0  0  0  0
   -2.7088    4.5977   13.3332 N   0  0  0  0  0  0
   -4.8295    0.8978   12.1920 N   0  0  0  0  0  0
   -1.8865    3.5239   11.6606 C   0  0  0  0  0  0
   -1.9290    4.7202   12.1980 N   0  0  0  0  0  0
   -4.8401    2.7238   16.4057 O   0  0  0  0  0  0
   -5.1314    1.5476   15.7876 C   0  0  0  0  0  0
   -4.5782   -0.8462   13.7268 C   0  0  0  0  0  0
   -4.8866   -0.1744   11.4339 C   0  0  0  0  0  0
   -4.7336   -1.6826   12.2356 S   0  0  0  0  0  0
   -1.0393    3.0735   10.2068 S   0  0  0  0  0  0
   -0.3019    4.6503    9.7223 C   0  0  0  0  0  0
    2.8777    5.8385   12.4033 C   0  0  0  0  0  0
    0.8217    5.0824   10.6601 C   0  0  0  0  0  0
    3.9150    6.1630   13.1753 F   0  0  0  0  0  0
    1.5608    6.1987   12.6808 C   0  0  0  0  0  0
    3.1699    5.0940   11.2596 C   0  0  0  0  0  0
    0.5324    5.8178   11.8156 C   0  0  0  0  0  0
    2.1453    4.7118   10.3925 C   0  0  0  0  0  0
   -5.9584    0.5951   16.5540 C   0  0  0  0  0  0
   -5.0703   -0.1306    9.9763 C   0  0  0  0  0  0
  1  2  1  0  0  0
  1  3  1  0  0  0
  1  5  2  0  0  0
  2  4  1  0  0  0
  2 12  2  0  0  0
  3  6  1  0  0  0
  3  7  2  0  0  0
  4  8  1  0  0  0
  4 13  2  0  0  0
  5 11  1  0  0  0
  6  9  1  0  0  0
  7 10  1  0  0  0
  8 14  2  0  0  0
  9 10  2  0  0  0
  9 16  1  0  0  0
 11 12  1  0  0  0
 12 25  1  0  0  0
 13 15  1  0  0  0
 14 15  1  0  0  0
 14 26  1  0  0  0
 16 17  1  0  0  0
 17 19  1  0  0  0
 18 20  1  0  0  0
 18 21  2  0  0  0
 18 22  1  0  0  0
 19 23  2  0  0  0
 19 24  1  0  0  0
 21 23  1  0  0  0
 22 24  2  0  0  0
M  END
>  <$CLUSTER>
296

>  <CHROM.0>
175.76821552,172.18004013,75.13895318

>  <CHROM.1>
-2.17680923,2.76185936,12.63093863,3.07126566,-0.67463445,-2.06379979

>  <INDEX>
188204

>  <Name>
Cerep CER0116166

>  <RI>
-2.07807e+09

>  <Rbt.Current_Directory>
/aloy/home/acomajuncosa/PocketVec_v2/GitLab_repo

>  <Rbt.Executable>
rbdock ($Id: //depot/dev/client3/rdock/2021.1/src/exe/rbdock.cxx#4 $)

>  <Rbt.Library>
libRbt.so (2021.1, Build901 2021/07/19)

>  <Rbt.Parameter_File>
examples/2_pocketvec/rDock_results/dock.prm

>  <Rbt.Receptor>
examples/2_pocketvec/rDock_results/st_parameters.prm

>  <SCORE>
-7.22317

>  <SCORE.INTER>
-1.78249

>  <SCORE.INTER.CONST>
1

>  <SCORE.INTER.POLAR>
0

>  <SCORE.INTER.REPUL>
0

>  <SCORE.INTER.ROT>
5

>  <SCORE.INTER.VDW>
-12.1825

>  <SCORE.INTER.norm>
-0.0685571

>  <SCORE.INTRA>
-4.00124e-13

>  <SCORE.INTRA.DIHEDRAL>
7.40741e-13

>  <SCORE.INTRA.DIHEDRAL.0>
6.33938

>  <SCORE.INTRA.POLAR>
0

>  <SCORE.INTRA.POLAR.0>
0

>  <SCORE.INTRA.REPUL>
0

>  <SCORE.INTRA.REPUL.0>
0

>  <SCORE.INTRA.VDW>
-7.70495e-13

>  <SCORE.INTRA.VDW.0>
-2.87307

>  <SCORE.INTRA.norm>
-1.53894e-14

>  <SCORE.RESTR>
0

>  <SCORE.RESTR.CAVITY>
0

>  <SCORE.RESTR.norm>
0

>  <SCORE.SYSTEM>
-5.44069

>  <SCORE.SYSTEM.CONST>
0

>  <SCORE.SYSTEM.DIHEDRAL>
1.46697

>  <SCORE.SYSTEM.POLAR>
-1.756

>  <SCORE.SYSTEM.VDW>
-0.203782

>  <SCORE.SYSTEM.norm>
-0.209257

>  <SCORE.heavy>
26

>  <SCORE.norm>
-0.277814

$$$$
Tripos 1554-07659
  rDOCK(R)          3D
libRbt.so/2021.1/901 2021/07/19
 26 27  0  0  0  0  0  0  0  0999 V2000
   -3.3884    2.2711   11.0219 S   0  0  0  0  0  0
   -2.5710    3.7780   11.0476 N   0  0  0  0  0  0
   -4.1432    2.2875   12.6329 C   0  0  0  0  0  0
   -2.3882    1.2200   11.0371 O   0  0  0  0  0  0
   -4.4472    2.2671   10.0336 O   0  0  0  0  0  0
   -5.6446    1.7908   17.6187 C   0  0  0  0  0  0
   -6.0963    2.2330   16.3818 N   0  0  0  0  0  0
   -4.5517    1.3051   17.8939 O   0  0  0  0  0  0
   -3.4655    1.7665   13.7472 C   0  0  0  0  0  0
   -5.4632    2.7538   12.7816 C   0  0  0  0  0  0
   -3.3578    4.9765   10.9319 C   0  0  0  0  0  0
   -5.6423    8.4565   10.8153 O   0  0  0  0  0  0
   -5.3875    2.2266   15.1415 C   0  0  0  0  0  0
   -4.9093    7.2891   10.7644 C   0  0  0  0  0  0
   -6.0756    2.7305   14.0352 C   0  0  0  0  0  0
   -4.0856    1.7456   14.9988 C   0  0  0  0  0  0
   -3.4677    5.8248   12.0369 C   0  0  0  0  0  0
   -4.0242    5.2850    9.7428 C   0  0  0  0  0  0
   -4.7988    6.4428    9.6619 C   0  0  0  0  0  0
   -4.2445    6.9818   11.9506 C   0  0  0  0  0  0
   -6.2634    8.9511    9.6231 C   0  0  0  0  0  0
   -6.6990    1.9744   18.6807 C   0  0  0  0  0  0
   -7.6580    8.3507    9.4741 C   0  0  0  0  0  0
   -6.3631   10.4665    9.7813 C   0  0  0  0  0  0
   -1.5666    3.8230   11.1412 H   0  0  0  0  0  0
   -7.0358    2.6018   16.3561 H   0  0  0  0  0  0
  1  2  1  0  0  0
  1  3  1  0  0  0
  1  4  2  0  0  0
  1  5  2  0  0  0
  2 11  1  0  0  0
  2 25  1  0  0  0
  3  9  1  0  0  0
  3 10  2  0  0  0
  6  7  1  0  0  0
  6  8  2  0  0  0
  6 22  1  0  0  0
  7 13  1  0  0  0
  7 26  1  0  0  0
  9 16  2  0  0  0
 10 15  1  0  0  0
 11 17  1  0  0  0
 11 18  2  0  0  0
 12 14  1  0  0  0
 12 21  1  0  0  0
 13 15  2  0  0  0
 13 16  1  0  0  0
 14 19  2  0  0  0
 14 20  1  0  0  0
 17 20  2  0  0  0
 18 19  1  0  0  0
 21 23  1  0  0  0
 21 24  1  0  0  0
M  END
>  <$CLUSTER>
717

>  <CHROM.0>
175.73264601,174.42485266,74.06826828

>  <CHROM.1>
-4.73454022,4.20235883,12.48925436,-1.47550901,0.95794065,-0.85061206

>  <INDEX>
467588

>  <Name>
Tripos 1554-07659

>  <RI>
-2.07807e+09

>  <Rbt.Current_Directory>
/aloy/home/acomajuncosa/PocketVec_v2/GitLab_repo

>  <Rbt.Executable>
rbdock ($Id: //depot/dev/client3/rdock/2021.1/src/exe/rbdock.cxx#4 $)

>  <Rbt.Library>
libRbt.so (2021.1, Build901 2021/07/19)

>  <Rbt.Parameter_File>
examples/2_pocketvec/rDock_results/dock.prm

>  <Rbt.Receptor>
examples/2_pocketvec/rDock_results/st_parameters.prm

>  <SCORE>
-9.31635

>  <SCORE.INTER>
-3.87865

>  <SCORE.INTER.CONST>
1

>  <SCORE.INTER.POLAR>
-1.8091

>  <SCORE.INTER.REPUL>
0.1005

>  <SCORE.INTER.ROT>
6

>  <SCORE.INTER.VDW>
-9.63023

>  <SCORE.INTER.norm>
-0.161611

>  <SCORE.INTRA>
-9.10383e-14

>  <SCORE.INTRA.DIHEDRAL>
-1.08002e-12

>  <SCORE.INTRA.DIHEDRAL.0>
16.9575

>  <SCORE.INTRA.POLAR>
0

>  <SCORE.INTRA.POLAR.0>
0

>  <SCORE.INTRA.REPUL>
0

>  <SCORE.INTRA.REPUL.0>
0

>  <SCORE.INTRA.VDW>
4.48974e-13

>  <SCORE.INTRA.VDW.0>
-2.69221

>  <SCORE.INTRA.norm>
-3.79326e-15

>  <SCORE.RESTR>
0

>  <SCORE.RESTR.CAVITY>
0

>  <SCORE.RESTR.norm>
0

>  <SCORE.SYSTEM>
-5.4377

>  <SCORE.SYSTEM.CONST>
0

>  <SCORE.SYSTEM.DIHEDRAL>
1.18541

>  <SCORE.SYSTEM.POLAR>
-1.74727

>  <SCORE.SYSTEM.VDW>
-0.0896722

>  <SCORE.SYSTEM.norm>
-0.226571

>  <SCORE.heavy>
24

>  <SCORE.norm>
-0.388181

$$$$
Princeton Biomolecular OSSK_115610
  rDOCK(R)          3D
libRbt.so/2021.1/901 2021/07/19
 23 24  0  0  0  0  0  0  0  0999 V2000
   -4.3555    2.1330   15.8665 S   0  0  0  0  0  0
   -5.5858    1.4480   14.8881 N   0  0  0  0  0  0
   -3.9575    3.5828   14.9156 C   0  0  0  0  0  0
   -4.9686    2.5921   17.0989 O   0  0  0  0  0  0
   -3.1805    1.2848   15.8993 O   0  0  0  0  0  0
   -3.2356    5.8727   13.4743 C   0  0  0  0  0  0
   -2.9289    3.5219   13.9531 C   0  0  0  0  0  0
   -4.5965    4.8057   15.1639 C   0  0  0  0  0  0
   -4.2423    5.9435   14.4388 C   0  0  0  0  0  0
   -2.5795    4.6644   13.2312 C   0  0  0  0  0  0
   -5.1973    0.8250   13.6514 C   0  0  0  0  0  0
   -4.4278   -0.3256   11.2276 C   0  0  0  0  0  0
   -2.8220    7.1181   12.6706 C   0  0  0  0  0  0
   -4.4478   -0.3535   13.6455 C   0  0  0  0  0  0
   -5.5615    1.4288   12.4440 C   0  0  0  0  0  0
   -4.0653   -0.9273   12.4324 C   0  0  0  0  0  0
   -5.1764    0.8510   11.2337 C   0  0  0  0  0  0
   -4.0439   -0.8988   10.0564 O   0  0  0  0  0  0
   -2.2653    8.2196   13.5786 C   0  0  0  0  0  0
   -3.9810    7.6476   11.8203 C   0  0  0  0  0  0
   -1.0113    7.8414   14.3434 C   0  0  0  0  0  0
   -6.5545    1.4812   15.1717 H   0  0  0  0  0  0
   -4.3263   -0.4342    9.2654 H   0  0  0  0  0  0
  1  2  1  0  0  0
  1  3  1  0  0  0
  1  4  2  0  0  0
  1  5  2  0  0  0
  2 11  1  0  0  0
  2 22  1  0  0  0
  3  7  1  0  0  0
  3  8  2  0  0  0
  6  9  2  0  0  0
  6 10  1  0  0  0
  6 13  1  0  0  0
  7 10  2  0  0  0
  8  9  1  0  0  0
 11 14  2  0  0  0
 11 15  1  0  0  0
 12 16  2  0  0  0
 12 17  1  0  0  0
 12 18  1  0  0  0
 13 19  1  0  0  0
 13 20  1  0  0  0
 14 16  1  0  0  0
 15 17  2  0  0  0
 18 23  1  0  0  0
 19 21  1  0  0  0
M  END
>  <$CLUSTER>
722

>  <CHROM.0>
2.51941327,171.98346976,70.42188669

>  <CHROM.1>
-3.95201019,3.13465089,13.77367159,2.69125131,-1.28838718,-1.90527294

>  <INDEX>
577938

>  <Name>
Princeton Biomolecular OSSK_115610

>  <RI>
-2.07807e+09

>  <Rbt.Current_Directory>
/aloy/home/acomajuncosa/PocketVec_v2/GitLab_repo

>  <Rbt.Executable>
rbdock ($Id: //depot/dev/client3/rdock/2021.1/src/exe/rbdock.cxx#4 $)

>  <Rbt.Library>
libRbt.so (2021.1, Build901 2021/07/19)

>  <Rbt.Parameter_File>
examples/2_pocketvec/rDock_results/dock.prm

>  <Rbt.Receptor>
examples/2_pocketvec/rDock_results/st_parameters.prm

>  <SCORE>
1.26713

>  <SCORE.INTER>
6.83586

>  <SCORE.INTER.CONST>
1

>  <SCORE.INTER.POLAR>
-0.61995

>  <SCORE.INTER.REPUL>
0.666953

>  <SCORE.INTER.ROT>
5

>  <SCORE.INTER.VDW>
-4.79107

>  <SCORE.INTER.norm>
0.325517

>  <SCORE.INTRA>
-9.56124e-13

>  <SCORE.INTRA.DIHEDRAL>
3.30402e-13

>  <SCORE.INTRA.DIHEDRAL.0>
14.3664

>  <SCORE.INTRA.POLAR>
0

>  <SCORE.INTRA.POLAR.0>
0

>  <SCORE.INTRA.REPUL>
0

>  <SCORE.INTRA.REPUL.0>
0

>  <SCORE.INTRA.VDW>
-1.12133e-12

>  <SCORE.INTRA.VDW.0>
-2.45675

>  <SCORE.INTRA.norm>
-4.55297e-14

>  <SCORE.RESTR>
0

>  <SCORE.RESTR.CAVITY>
0

>  <SCORE.RESTR.norm>
0

>  <SCORE.SYSTEM>
-5.56873

>  <SCORE.SYSTEM.CONST>
0

>  <SCORE.SYSTEM.DIHEDRAL>
0.906672

>  <SCORE.SYSTEM.POLAR>
-1.71679

>  <SCORE.SYSTEM.VDW>
-0.18499

>  <SCORE.SYSTEM.norm>
-0.265178

>  <SCORE.heavy>
21

>  <SCORE.norm>
0.0603394

$$$$
Pyxis Discovery PYX 00000172
  rDOCK(R)          3D
libRbt.so/2021.1/901 2021/07/19
 27 29  0  0  0  0  0  0  0  0999 V2000
   -4.3088    1.5491   13.3389 C   0  0  0  0  0  0
   -4.3822    5.1398    9.4237 C   0  0  0  0  0  0
   -3.8468    3.6916   11.3976 N   0  3  0  0  0  0
   -3.3482    2.7134   13.6180 C   0  0  0  0  0  0
   -5.3684    1.9626   12.3080 C   0  0  0  0  0  0
   -3.9046    5.7584    8.3078 N   0  0  0  0  0  0
   -4.9652    1.0718   14.6355 C   0  0  0  0  0  0
   -3.3062    4.3748   10.1709 C   0  0  0  0  0  0
   -5.5501    5.1818    9.8030 O   0  0  0  0  0  0
   -4.7476    2.5353   11.0383 C   0  0  0  0  0  0
   -2.7405    3.2826   12.3392 C   0  0  0  0  0  0
   -5.7901    1.9665   15.3853 C   0  0  0  0  0  0
   -4.8105   -0.2193   15.1440 C   0  0  0  0  0  0
   -3.5424    0.4642   12.8090 O   0  0  0  0  0  0
   -6.2270    0.2654   17.0436 C   0  0  0  0  0  0
   -5.4282   -0.6244   16.3310 C   0  0  0  0  0  0
   -6.4082    1.5615   16.5704 C   0  0  0  0  0  0
   -6.7814   -0.1961   18.1637 F   0  0  0  0  0  0
   -4.7251    6.5692    7.4069 C   0  0  0  0  0  0
   -4.7744    8.0145    7.8937 C   0  0  0  0  0  0
   -4.2011    6.4918    5.9776 C   0  0  0  0  0  0
   -5.5724    8.9082    6.9499 C   0  0  0  0  0  0
   -4.9953    7.3759    5.0270 C   0  0  0  0  0  0
   -5.0474    8.8192    5.5203 C   0  0  0  0  0  0
   -4.4171    4.3624   11.8916 H   0  0  0  0  0  0
   -2.9251    5.6508    8.0889 H   0  0  0  0  0  0
   -3.1325    0.7681   11.9962 H   0  0  0  0  0  0
  1  4  1  0  0  0
  1  5  1  0  0  0
  1  7  1  0  0  0
  1 14  1  0  0  0
  2  6  1  0  0  0
  2  8  1  0  0  0
  2  9  2  0  0  0
  3  8  1  0  0  0
  3 10  1  0  0  0
  3 11  1  0  0  0
  3 25  1  0  0  0
  4 11  1  0  0  0
  5 10  1  0  0  0
  6 19  1  0  0  0
  6 26  1  0  0  0
  7 12  1  0  0  0
  7 13  2  0  0  0
 12 17  2  0  0  0
 13 16  1  0  0  0
 14 27  1  0  0  0
 15 16  2  0  0  0
 15 17  1  0  0  0
 15 18  1  0  0  0
 19 20  1  0  0  0
 19 21  1  0  0  0
 20 22  1  0  0  0
 21 23  1  0  0  0
 22 24  1  0  0  0
 23 24  1  0  0  0
M  END
>  <$CLUSTER>
935

>  <CHROM.0>
0.25549560,172.26740349,73.25055379

>  <CHROM.1>
-4.78318797,3.60977700,11.52350337,-1.65636684,0.65243004,-0.87685172

>  <INDEX>
611698

>  <Name>
Pyxis Discovery PYX 00000172

>  <RI>
-2.07807e+09

>  <Rbt.Current_Directory>
/aloy/home/acomajuncosa/PocketVec_v2/GitLab_repo

>  <Rbt.Executable>
rbdock ($Id: //depot/dev/client3/rdock/2021.1/src/exe/rbdock.cxx#4 $)

>  <Rbt.Library>
libRbt.so (2021.1, Build901 2021/07/19)

>  <Rbt.Parameter_File>
examples/2_pocketvec/rDock_results/dock.prm

>  <Rbt.Receptor>
examples/2_pocketvec/rDock_results/st_parameters.prm

>  <SCORE>
-12.3303

>  <SCORE.INTER>
-6.72478

>  <SCORE.INTER.CONST>
1

>  <SCORE.INTER.POLAR>
0

>  <SCORE.INTER.REPUL>
0

>  <SCORE.INTER.ROT>
4

>  <SCORE.INTER.VDW>
-16.1248

>  <SCORE.INTER.norm>
-0.280199

>  <SCORE.INTRA>
2.16298e-12

>  <SCORE.INTRA.DIHEDRAL>
-7.85594e-13

>  <SCORE.INTRA.DIHEDRAL.0>
3.69569

>  <SCORE.INTRA.POLAR>
0

>  <SCORE.INTRA.POLAR.0>
0

>  <SCORE.INTRA.REPUL>
0

>  <SCORE.INTRA.REPUL.0>
0

>  <SCORE.INTRA.VDW>
2.55578e-12

>  <SCORE.INTRA.VDW.0>
0.0348676

>  <SCORE.INTRA.norm>
9.01241e-14

>  <SCORE.RESTR>
0

>  <SCORE.RESTR.CAVITY>
0

>  <SCORE.RESTR.norm>
0

>  <SCORE.SYSTEM>
-5.60551

>  <SCORE.SYSTEM.CONST>
0

>  <SCORE.SYSTEM.DIHEDRAL>
1.18759

>  <SCORE.SYSTEM.POLAR>
-1.74054

>  <SCORE.SYSTEM.VDW>
-0.28148

>  <SCORE.SYSTEM.norm>
-0.233563

>  <SCORE.heavy>
24

>  <SCORE.norm>
-0.513762

$$$$
Chem T&I IVK/0000448
  rDOCK(R)          3D
libRbt.so/2021.1/901 2021/07/19
 26 28  0  0  0  0  0  0  0  0999 V2000
   -5.8261    6.6137    7.6461 S   0  0  0  0  0  0
   -5.2567    6.2031    9.1705 N   0  0  0  0  0  0
   -4.9479    5.2090   11.9600 N   0  0  0  0  0  0
   -3.9950    7.2780    7.5074 C   0  0  0  0  0  0
   -5.8438    5.5637    6.7068 O   0  0  0  0  0  0
   -6.5865    7.7984    7.5847 O   0  0  0  0  0  0
   -5.1087    4.7610    9.4961 C   0  0  0  0  0  0
   -5.8256    6.9165   10.3441 C   0  0  0  0  0  0
   -5.3302    4.6363   13.0939 C   0  0  0  0  0  0
   -5.0565    6.6420   11.6511 C   0  0  0  0  0  0
   -4.3487    4.5116   10.8133 C   0  0  0  0  0  0
   -6.1515    3.4055   15.5308 C   0  0  0  0  0  0
   -6.5875    2.8020   16.8067 C   0  0  0  0  0  0
   -7.0738    3.5111   17.6841 O   0  0  0  0  0  0
   -5.8993    5.3760   14.1525 C   0  0  0  0  0  0
   -5.1934    3.2513   13.3166 C   0  0  0  0  0  0
   -5.5959    2.6439   14.5131 C   0  0  0  0  0  0
   -6.3038    4.7742   15.3509 C   0  0  0  0  0  0
   -3.7373    8.6826    7.6326 C   0  0  0  0  0  0
   -3.0302    6.5411    6.7341 C   0  0  0  0  0  0
   -1.7710    7.0757    6.4586 C   0  0  0  0  0  0
   -2.4754    9.2114    7.3541 C   0  0  0  0  0  0
   -1.4949    8.4085    6.7690 C   0  0  0  0  0  0
   -6.4260    1.3189   17.0115 C   0  0  0  0  0  0
   -0.1550    9.0073    6.3917 C   0  0  0  0  0  0
    0.8382    8.8561    7.5332 C   0  0  0  0  0  0
  1  2  1  0  0  0
  1  4  1  0  0  0
  1  5  2  0  0  0
  1  6  2  0  0  0
  2  7  1  0  0  0
  2  8  1  0  0  0
  3  9  1  0  0  0
  3 10  1  0  0  0
  3 11  1  0  0  0
  4 19  1  0  0  0
  4 20  2  0  0  0
  7 11  1  0  0  0
  8 10  1  0  0  0
  9 15  1  0  0  0
  9 16  2  0  0  0
 12 13  1  0  0  0
 12 17  2  0  0  0
 12 18  1  0  0  0
 13 14  2  0  0  0
 13 24  1  0  0  0
 15 18  2  0  0  0
 16 17  1  0  0  0
 19 22  2  0  0  0
 20 21  1  0  0  0
 21 23  2  0  0  0
 22 23  1  0  0  0
 23 25  1  0  0  0
 25 26  1  0  0  0
M  END
>  <$CLUSTER>
726

>  <CHROM.0>
177.15374820,171.94616137,73.87577670

>  <CHROM.1>
-4.66855623,5.85048853,10.56482673,1.21048794,-0.30107492,-1.19526913

>  <INDEX>
553125

>  <Name>
Chem T&I IVK/0000448

>  <RI>
-2.07807e+09

>  <Rbt.Current_Directory>
/aloy/home/acomajuncosa/PocketVec_v2/GitLab_repo

>  <Rbt.Executable>
rbdock ($Id: //depot/dev/client3/rdock/2021.1/src/exe/rbdock.cxx#4 $)

>  <Rbt.Library>
libRbt.so (2021.1, Build901 2021/07/19)

>  <Rbt.Parameter_File>
examples/2_pocketvec/rDock_results/dock.prm

>  <Rbt.Receptor>
examples/2_pocketvec/rDock_results/st_parameters.prm

>  <SCORE>
-11.8946

>  <SCORE.INTER>
-6.43591

>  <SCORE.INTER.CONST>
1

>  <SCORE.INTER.POLAR>
-0.815856

>  <SCORE.INTER.REPUL>
0

>  <SCORE.INTER.ROT>
5

>  <SCORE.INTER.VDW>
-14.062

>  <SCORE.INTER.norm>
-0.247535

>  <SCORE.INTRA>
3.78342e-12

>  <SCORE.INTRA.DIHEDRAL>
-4.96492e-13

>  <SCORE.INTRA.DIHEDRAL.0>
4.52287

>  <SCORE.INTRA.POLAR>
0

>  <SCORE.INTRA.POLAR.0>
0

>  <SCORE.INTRA.REPUL>
0

>  <SCORE.INTRA.REPUL.0>
0

>  <SCORE.INTRA.VDW>
4.03166e-12

>  <SCORE.INTRA.VDW.0>
0.716007

>  <SCORE.INTRA.norm>
1.45516e-13

>  <SCORE.RESTR>
0

>  <SCORE.RESTR.CAVITY>
0

>  <SCORE.RESTR.norm>
0

>  <SCORE.SYSTEM>
-5.45867

>  <SCORE.SYSTEM.CONST>
0

>  <SCORE.SYSTEM.DIHEDRAL>
1.30502

>  <SCORE.SYSTEM.POLAR>
-1.74569

>  <SCORE.SYSTEM.VDW>
-0.175823

>  <SCORE.SYSTEM.norm>
-0.209949

>  <SCORE.heavy>
26

>  <SCORE.norm>
-0.457484

$$$$
Life Chemicals F0577-0037
  rDOCK(R)          3D
libRbt.so/2021.1/901 2021/07/19
 30 33  0  0  0  0  0  0  0  0999 V2000
   -2.3767    2.4075   10.5685 C   0  0  0  0  0  0
   -2.9964    3.6113   10.4607 C   0  0  0  0  0  0
   -3.0721    1.2113   10.6138 N   0  0  0  0  0  0
   -4.4747    3.6491   10.2987 C   0  0  0  0  0  0
   -5.0805    2.4129   10.3552 N   0  0  0  0  0  0
   -0.7301    4.7410   10.3491 C   0  0  0  0  0  0
   -2.2366    4.9369   10.4659 C   0  0  0  0  0  0
   -0.9863    2.4068   10.6164 N   0  0  0  0  0  0
   -0.1814    3.5168   10.4647 C   0  0  0  0  0  0
   -4.3558    1.2628   10.5111 C   0  0  0  0  0  0
    0.1394    5.9120   10.0440 C   0  0  0  0  0  0
   -2.5500    5.7063   11.7593 C   0  0  0  0  0  0
   -5.0892    4.6955   10.1188 O   0  0  0  0  0  0
   -3.1759    7.1947   14.0742 C   0  0  0  0  0  0
   -5.3565   -0.1543   10.5381 S   0  0  0  0  0  0
   -0.3489    7.0226    9.8460 O   0  0  0  0  0  0
   -3.1869    6.9730   11.6695 C   0  0  0  0  0  0
   -2.2483    5.2215   13.0353 C   0  0  0  0  0  0
   -3.4929    7.7039   12.8192 C   0  0  0  0  0  0
   -2.5549    5.9536   14.1830 C   0  0  0  0  0  0
    1.3037    3.2688   10.4284 C   0  0  0  0  0  0
   -3.5238    8.0189   15.3219 C   0  0  0  0  0  0
    1.6296    5.6940    9.8990 C   0  0  0  0  0  0
    2.1040    4.5259   10.7451 C   0  0  0  0  0  0
   -4.1134   -1.4450   10.7619 C   0  0  0  0  0  0
   -2.2683    8.4076   16.1083 C   0  0  0  0  0  0
   -4.5246    7.2857   16.2200 C   0  0  0  0  0  0
   -3.4958   -1.4326   12.1567 C   0  0  0  0  0  0
   -6.0859    2.3541   10.2801 H   0  0  0  0  0  0
   -0.5287    1.5209   10.7749 H   0  0  0  0  0  0
  1  2  2  0  0  0
  1  3  1  0  0  0
  1  8  1  0  0  0
  2  4  1  0  0  0
  2  7  1  0  0  0
  3 10  2  0  0  0
  4  5  1  0  0  0
  4 13  2  0  0  0
  5 10  1  0  0  0
  5 29  1  0  0  0
  6  7  1  0  0  0
  6  9  2  0  0  0
  6 11  1  0  0  0
  7 12  1  0  0  0
  8  9  1  0  0  0
  8 30  1  0  0  0
  9 21  1  0  0  0
 10 15  1  0  0  0
 11 16  2  0  0  0
 11 23  1  0  0  0
 12 17  2  0  0  0
 12 18  1  0  0  0
 14 19  2  0  0  0
 14 20  1  0  0  0
 14 22  1  0  0  0
 15 25  1  0  0  0
 17 19  1  0  0  0
 18 20  2  0  0  0
 21 24  1  0  0  0
 22 26  1  0  0  0
 22 27  1  0  0  0
 23 24  1  0  0  0
 25 28  1  0  0  0
M  END
>  <$CLUSTER>
606

>  <CHROM.0>
175.90741537,172.13661511,73.90382514

>  <CHROM.1>
-2.54924002,4.08558897,11.55160444,-1.84982418,0.49122440,0.53035326

>  <INDEX>
274978

>  <Name>
Life Chemicals F0577-0037

>  <RI>
-2.07807e+09

>  <Rbt.Current_Directory>
/aloy/home/acomajuncosa/PocketVec_v2/GitLab_repo

>  <Rbt.Executable>
rbdock ($Id: //depot/dev/client3/rdock/2021.1/src/exe/rbdock.cxx#4 $)

>  <Rbt.Library>
libRbt.so (2021.1, Build901 2021/07/19)

>  <Rbt.Parameter_File>
examples/2_pocketvec/rDock_results/dock.prm

>  <Rbt.Receptor>
examples/2_pocketvec/rDock_results/st_parameters.prm

>  <SCORE>
-7.65556

>  <SCORE.INTER>
-2.19728

>  <SCORE.INTER.CONST>
1

>  <SCORE.INTER.POLAR>
0

>  <SCORE.INTER.REPUL>
0

>  <SCORE.INTER.ROT>
4

>  <SCORE.INTER.VDW>
-11.5973

>  <SCORE.INTER.norm>
-0.0784745

>  <SCORE.INTRA>
-4.2788e-13

>  <SCORE.INTRA.DIHEDRAL>
-2.14495e-13

>  <SCORE.INTRA.DIHEDRAL.0>
3.62382

>  <SCORE.INTRA.POLAR>
0

>  <SCORE.INTRA.POLAR.0>
0

>  <SCORE.INTRA.REPUL>
0

>  <SCORE.INTRA.REPUL.0>
0

>  <SCORE.INTRA.VDW>
-3.20632e-13

>  <SCORE.INTRA.VDW.0>
-1.48029

>  <SCORE.INTRA.norm>
-1.52814e-14

>  <SCORE.RESTR>
0

>  <SCORE.RESTR.CAVITY>
0

>  <SCORE.RESTR.norm>
0

>  <SCORE.SYSTEM>
-5.45828

>  <SCORE.SYSTEM.CONST>
0

>  <SCORE.SYSTEM.DIHEDRAL>
1.30894

>  <SCORE.SYSTEM.POLAR>
-1.74592

>  <SCORE.SYSTEM.VDW>
-0.176607

>  <SCORE.SYSTEM.norm>
-0.194939

>  <SCORE.heavy>
28

>  <SCORE.norm>
-0.273413

$$$$
Life Chemicals F0642-0697
  rDOCK(R)          3D
libRbt.so/2021.1/901 2021/07/19
 25 27  0  0  0  0  0  0  0  0999 V2000
   -4.6814    2.3742   14.3799 N   0  0  0  0  0  0
   -4.2020    1.2606   13.8603 C   0  0  0  0  0  0
   -5.5550    2.0846   15.4093 C   0  0  0  0  0  0
   -4.7932   -0.1875   14.6042 S   0  0  0  0  0  0
   -5.7414    0.7488   15.6759 C   0  0  0  0  0  0
   -3.0054    2.3733   10.8294 C   0  0  0  0  0  0
   -2.8147    2.2692   12.1909 N   0  0  0  0  0  0
   -3.3218    1.1700   12.8358 N   0  0  0  0  0  0
   -2.3948    3.6239   10.2565 C   0  0  0  0  0  0
   -6.2526    3.0642   16.1876 C   0  0  0  0  0  0
   -3.5767    1.5496   10.1180 O   0  0  0  0  0  0
   -2.9630    4.0813    9.0307 C   0  0  0  0  0  0
   -1.3297    4.2898   10.8035 C   0  0  0  0  0  0
   -1.3777    5.9050    9.0014 C   0  0  0  0  0  0
   -2.4493    5.2277    8.4220 C   0  0  0  0  0  0
   -0.8181    5.4356   10.1892 C   0  0  0  0  0  0
   -0.9499    6.9921    8.3590 F   0  0  0  0  0  0
   -6.0282    4.3798   15.8766 O   0  0  0  0  0  0
   -6.6008    0.2946   16.6945 C   0  0  0  0  0  0
   -7.2786    1.2512   17.4496 C   0  0  0  0  0  0
   -7.1110    2.6122   17.2027 C   0  0  0  0  0  0
   -6.7180    5.3652   16.6447 C   0  0  0  0  0  0
   -6.3123    6.7307   16.1229 C   0  0  0  0  0  0
   -2.3142    2.9836   12.6998 H   0  0  0  0  0  0
   -3.0255    0.2530   12.5336 H   0  0  0  0  0  0
  1  2  2  0  0  0
  1  3  1  0  0  0
  2  4  1  0  0  0
  2  8  1  0  0  0
  3  5  2  0  0  0
  3 10  1  0  0  0
  4  5  1  0  0  0
  5 19  1  0  0  0
  6  7  1  0  0  0
  6  9  1  0  0  0
  6 11  2  0  0  0
  7  8  1  0  0  0
  7 24  1  0  0  0
  8 25  1  0  0  0
  9 12  2  0  0  0
  9 13  1  0  0  0
 10 18  1  0  0  0
 10 21  2  0  0  0
 12 15  1  0  0  0
 13 16  2  0  0  0
 14 15  2  0  0  0
 14 16  1  0  0  0
 14 17  1  0  0  0
 18 22  1  0  0  0
 19 20  2  0  0  0
 20 21  1  0  0  0
 22 23  1  0  0  0
M  END
>  <$CLUSTER>
735

>  <CHROM.0>
0.21437900,172.32656443,73.46371283

>  <CHROM.1>
-4.18207532,3.05919519,13.16022956,-2.77426854,0.98944349,-0.03784055

>  <INDEX>
280059

>  <Name>
Life Chemicals F0642-0697

>  <RI>
-2.07807e+09

>  <Rbt.Current_Directory>
/aloy/home/acomajuncosa/PocketVec_v2/GitLab_repo

>  <Rbt.Executable>
rbdock ($Id: //depot/dev/client3/rdock/2021.1/src/exe/rbdock.cxx#4 $)

>  <Rbt.Library>
libRbt.so (2021.1, Build901 2021/07/19)

>  <Rbt.Parameter_File>
examples/2_pocketvec/rDock_results/dock.prm

>  <Rbt.Receptor>
examples/2_pocketvec/rDock_results/st_parameters.prm

>  <SCORE>
-6.6843

>  <SCORE.INTER>
-1.07723

>  <SCORE.INTER.CONST>
1

>  <SCORE.INTER.POLAR>
-0.582719

>  <SCORE.INTER.REPUL>
0

>  <SCORE.INTER.ROT>
5

>  <SCORE.INTER.VDW>
-9.49599

>  <SCORE.INTER.norm>
-0.0468362

>  <SCORE.INTRA>
-4.73518e-12

>  <SCORE.INTRA.DIHEDRAL>
-6.35492e-13

>  <SCORE.INTRA.DIHEDRAL.0>
3.22749

>  <SCORE.INTRA.POLAR>
0

>  <SCORE.INTRA.POLAR.0>
0

>  <SCORE.INTRA.REPUL>
0

>  <SCORE.INTRA.REPUL.0>
0

>  <SCORE.INTRA.VDW>
-4.41744e-12

>  <SCORE.INTRA.VDW.0>
0.211182

>  <SCORE.INTRA.norm>
-2.05878e-13

>  <SCORE.RESTR>
0

>  <SCORE.RESTR.CAVITY>
0

>  <SCORE.RESTR.norm>
0

>  <SCORE.SYSTEM>
-5.60707

>  <SCORE.SYSTEM.CONST>
0

>  <SCORE.SYSTEM.DIHEDRAL>
1.209

>  <SCORE.SYSTEM.POLAR>
-1.7423

>  <SCORE.SYSTEM.VDW>
-0.287753

>  <SCORE.SYSTEM.norm>
-0.243786

>  <SCORE.heavy>
23

>  <SCORE.norm>
-0.290622

$$$$
Chem T&I AMSACS-26179
  rDOCK(R)          3D
libRbt.so/2021.1/901 2021/07/19
 21 22  0  0  0  0  0  0  0  0999 V2000
   -4.7335    1.9031   10.7599 S   0  0  0  0  0  0
   -4.8096    1.2168   12.3128 N   0  0  0  0  0  0
   -5.1842    1.9960   13.4594 C   0  0  0  0  0  0
   -3.3135    2.9608   10.9336 C   0  0  0  0  0  0
   -5.8416    3.1591   13.2623 N   0  0  0  0  0  0
   -5.8910    2.7345   10.5004 O   0  0  0  0  0  0
   -4.3619    0.8537    9.8276 O   0  0  0  0  0  0
   -2.0477    2.4723   10.6532 C   0  0  0  0  0  0
   -0.9489    3.3237   10.7766 C   0  0  0  0  0  0
   -6.2381    3.8360   14.3638 C   0  0  0  0  0  0
   -1.1292    4.6484   11.1755 C   0  0  0  0  0  0
   -3.5155    4.2849   11.3304 C   0  0  0  0  0  0
   -4.9476    1.4626   14.7212 C   0  0  0  0  0  0
   -2.4105    5.1278   11.4514 C   0  0  0  0  0  0
   -5.3710    2.1849   15.8329 C   0  0  0  0  0  0
   -6.0271    3.3972   15.6596 C   0  0  0  0  0  0
    0.4273    2.8203   10.4833 C   0  0  0  0  0  0
    0.0541    5.5506   11.3047 C   0  0  0  0  0  0
   -6.9498    5.1398   14.1402 C   0  0  0  0  0  0
   -5.1176    1.6520   17.2049 C   0  0  0  0  0  0
   -4.5861    0.2388   12.4320 H   0  0  0  0  0  0
  1  2  1  0  0  0
  1  4  1  0  0  0
  1  6  2  0  0  0
  1  7  2  0  0  0
  2  3  1  0  0  0
  2 21  1  0  0  0
  3  5  2  0  0  0
  3 13  1  0  0  0
  4  8  1  0  0  0
  4 12  2  0  0  0
  5 10  1  0  0  0
  8  9  2  0  0  0
  9 11  1  0  0  0
  9 17  1  0  0  0
 10 16  2  0  0  0
 10 19  1  0  0  0
 11 14  2  0  0  0
 11 18  1  0  0  0
 12 14  1  0  0  0
 13 15  2  0  0  0
 15 16  1  0  0  0
 15 20  1  0  0  0
M  END
>  <$CLUSTER>
688

>  <CHROM.0>
2.81731197,172.72259257,74.06272297

>  <CHROM.1>
-3.98426670,2.93934077,12.36294701,0.60491614,-0.51884640,-1.98647497

>  <INDEX>
523713

>  <Name>
Chem T&I AMSACS-26179

>  <RI>
-2.07807e+09

>  <Rbt.Current_Directory>
/aloy/home/acomajuncosa/PocketVec_v2/GitLab_repo

>  <Rbt.Executable>
rbdock ($Id: //depot/dev/client3/rdock/2021.1/src/exe/rbdock.cxx#4 $)

>  <Rbt.Library>
libRbt.so (2021.1, Build901 2021/07/19)

>  <Rbt.Parameter_File>
examples/2_pocketvec/rDock_results/dock.prm

>  <Rbt.Receptor>
examples/2_pocketvec/rDock_results/st_parameters.prm

>  <SCORE>
-15.7438

>  <SCORE.INTER>
-10.1358

>  <SCORE.INTER.CONST>
1

>  <SCORE.INTER.POLAR>
-1.63083

>  <SCORE.INTER.REPUL>
0

>  <SCORE.INTER.ROT>
3

>  <SCORE.INTER.VDW>
-12.991

>  <SCORE.INTER.norm>
-0.506791

>  <SCORE.INTRA>
-4.50751e-14

>  <SCORE.INTRA.DIHEDRAL>
1.73639e-13

>  <SCORE.INTRA.DIHEDRAL.0>
3.47064

>  <SCORE.INTRA.POLAR>
0

>  <SCORE.INTRA.POLAR.0>
0

>  <SCORE.INTRA.REPUL>
0

>  <SCORE.INTRA.REPUL.0>
0

>  <SCORE.INTRA.VDW>
-1.31894e-13

>  <SCORE.INTRA.VDW.0>
-2.22569

>  <SCORE.INTRA.norm>
-2.25375e-15

>  <SCORE.RESTR>
0

>  <SCORE.RESTR.CAVITY>
0

>  <SCORE.RESTR.norm>
0

>  <SCORE.SYSTEM>
-5.60799

>  <SCORE.SYSTEM.CONST>
0

>  <SCORE.SYSTEM.DIHEDRAL>
1.2619

>  <SCORE.SYSTEM.POLAR>
-1.74723

>  <SCORE.SYSTEM.VDW>
-0.298363

>  <SCORE.SYSTEM.norm>
-0.280399

>  <SCORE.heavy>
20

>  <SCORE.norm>
-0.787191

$$$$
Tripos 1527-02989
  rDOCK(R)          3D
libRbt.so/2021.1/901 2021/07/19
 22 23  0  0  0  0  0  0  0  0999 V2000
   -3.3399    3.0093   12.9614 C   0  0  0  0  0  0
   -5.9191    1.1043   16.7211 C   0  0  0  0  0  0
   -4.8515    1.1452   15.8224 C   0  0  0  0  0  0
   -3.6495    2.1246   13.9895 N   0  0  0  0  0  0
   -4.7646    2.1618   14.8580 C   0  0  0  0  0  0
   -6.9120    2.0777   16.6685 C   0  0  0  0  0  0
   -3.9777    3.9972   12.6088 O   0  0  0  0  0  0
   -2.1615    2.6469   12.3270 N   0  0  0  0  0  0
   -6.8355    3.0911   15.7153 C   0  0  0  0  0  0
   -5.9908   -0.1450   17.8762 Cl  0  0  0  0  0  0
   -5.7672    3.1356   14.8126 C   0  0  0  0  0  0
   -7.9628    2.1138   17.4871 F   0  0  0  0  0  0
   -1.5633    3.3652   11.2149 C   0  0  0  0  0  0
   -1.5227    3.6536    8.7152 C   0  0  0  0  0  0
   -2.1477    2.9182    9.8882 C   0  0  0  0  0  0
   -0.3739    3.1491    8.0960 C   0  0  0  0  0  0
   -2.0681    4.8598    8.2655 C   0  0  0  0  0  0
   -1.4823    5.5451    7.2005 C   0  0  0  0  0  0
    0.2111    3.8362    7.0314 C   0  0  0  0  0  0
   -0.3447    5.0321    6.5840 C   0  0  0  0  0  0
   -3.0001    1.3642   14.1327 H   0  0  0  0  0  0
   -1.6843    1.8230   12.6631 H   0  0  0  0  0  0
  1  4  1  0  0  0
  1  7  2  0  0  0
  1  8  1  0  0  0
  2  3  2  0  0  0
  2  6  1  0  0  0
  2 10  1  0  0  0
  3  5  1  0  0  0
  4  5  1  0  0  0
  4 21  1  0  0  0
  5 11  2  0  0  0
  6  9  2  0  0  0
  6 12  1  0  0  0
  8 13  1  0  0  0
  8 22  1  0  0  0
  9 11  1  0  0  0
 13 15  1  0  0  0
 14 15  1  0  0  0
 14 16  1  0  0  0
 14 17  2  0  0  0
 16 19  2  0  0  0
 17 18  1  0  0  0
 18 20  2  0  0  0
 19 20  1  0  0  0
M  END
>  <$CLUSTER>
706

>  <CHROM.0>
-0.39332368,172.28642718,71.19771601

>  <CHROM.1>
-3.80983329,2.69609255,12.93518245,-0.91215124,-0.62501453,2.31460419

>  <INDEX>
449729

>  <Name>
Tripos 1527-02989

>  <RI>
-2.07807e+09

>  <Rbt.Current_Directory>
/aloy/home/acomajuncosa/PocketVec_v2/GitLab_repo

>  <Rbt.Executable>
rbdock ($Id: //depot/dev/client3/rdock/2021.1/src/exe/rbdock.cxx#4 $)

>  <Rbt.Library>
libRbt.so (2021.1, Build901 2021/07/19)

>  <Rbt.Parameter_File>
examples/2_pocketvec/rDock_results/dock.prm

>  <Rbt.Receptor>
examples/2_pocketvec/rDock_results/st_parameters.prm

>  <SCORE>
-14.0234

>  <SCORE.INTER>
-8.43459

>  <SCORE.INTER.CONST>
1

>  <SCORE.INTER.POLAR>
-0.853895

>  <SCORE.INTER.REPUL>
0

>  <SCORE.INTER.ROT>
4

>  <SCORE.INTER.VDW>
-14.9313

>  <SCORE.INTER.norm>
-0.421729

>  <SCORE.INTRA>
-4.41869e-13

>  <SCORE.INTRA.DIHEDRAL>
2.75779e-13

>  <SCORE.INTRA.DIHEDRAL.0>
1.95309

>  <SCORE.INTRA.POLAR>
0

>  <SCORE.INTRA.POLAR.0>
0

>  <SCORE.INTRA.REPUL>
0

>  <SCORE.INTRA.REPUL.0>
0

>  <SCORE.INTRA.VDW>
-5.79758e-13

>  <SCORE.INTRA.VDW.0>
-0.875667

>  <SCORE.INTRA.norm>
-2.20934e-14

>  <SCORE.RESTR>
0

>  <SCORE.RESTR.CAVITY>
0

>  <SCORE.RESTR.norm>
0

>  <SCORE.SYSTEM>
-5.5888

>  <SCORE.SYSTEM.CONST>
0

>  <SCORE.SYSTEM.DIHEDRAL>
0.958034

>  <SCORE.SYSTEM.POLAR>
-1.72337

>  <SCORE.SYSTEM.VDW>
-0.208369

>  <SCORE.SYSTEM.norm>
-0.27944

>  <SCORE.heavy>
20

>  <SCORE.norm>
-0.701169

$$$$
Enamine T0503-9700
  rDOCK(R)          3D
libRbt.so/2021.1/901 2021/07/19
 26 28  0  0  0  0  0  0  0  0999 V2000
   -4.9560    2.5555   13.4032 N   0  0  0  0  0  0
   -4.6843    1.8361   12.2716 C   0  0  0  0  0  0
   -4.5795    4.0160   11.8223 C   0  0  0  0  0  0
   -4.8934    3.9015   13.1331 C   0  0  0  0  0  0
   -3.4583    5.7729    7.1431 N   0  0  0  0  0  0
   -4.4415    2.7321   11.2552 C   0  0  0  0  0  0
   -3.6616    6.8220    7.9825 C   0  0  0  0  0  0
   -3.1507    6.0628    5.8573 C   0  0  0  0  0  0
   -3.5679    8.1145    7.5861 N   0  0  0  0  0  0
   -3.0349    7.3452    5.3690 C   0  0  0  0  0  0
   -4.1051    5.3446    9.8400 N   0  0  0  0  0  0
   -3.2575    8.3432    6.2897 C   0  0  0  0  0  0
   -5.2905    1.9099   14.6843 C   0  0  0  0  0  0
   -4.4085    5.3189   11.1022 C   0  0  0  0  0  0
   -3.9843    6.5987    9.3292 N   0  0  0  0  0  0
   -2.9469    4.9918    5.0160 O   0  0  0  0  0  0
   -4.6925    0.3402   12.0787 C   0  0  0  0  0  0
   -5.1487    4.9130   14.1899 C   0  0  0  0  0  0
   -3.1547    9.8245    5.8548 C   0  0  0  0  0  0
   -4.5395    0.8283   15.1589 C   0  0  0  0  0  0
   -6.3531    2.4030   15.4527 C   0  0  0  0  0  0
   -6.6568    1.8178   16.6833 C   0  0  0  0  0  0
   -4.8480    0.2496   16.3915 C   0  0  0  0  0  0
   -5.9058    0.7425   17.1529 C   0  0  0  0  0  0
   -4.1313    7.3926    9.9370 H   0  0  0  0  0  0
   -2.7297    5.2228    4.1102 H   0  0  0  0  0  0
  1  2  1  0  0  0
  1  4  1  0  0  0
  1 13  1  0  0  0
  2  6  2  0  0  0
  2 17  1  0  0  0
  3  4  2  0  0  0
  3  6  1  0  0  0
  3 14  1  0  0  0
  4 18  1  0  0  0
  5  7  2  0  0  0
  5  8  1  0  0  0
  7  9  1  0  0  0
  7 15  1  0  0  0
  8 10  2  0  0  0
  8 16  1  0  0  0
  9 12  2  0  0  0
 10 12  1  0  0  0
 11 14  2  0  0  0
 11 15  1  0  0  0
 12 19  1  0  0  0
 13 20  1  0  0  0
 13 21  2  0  0  0
 15 25  1  0  0  0
 16 26  1  0  0  0
 20 23  2  0  0  0
 21 22  1  0  0  0
 22 24  2  0  0  0
 23 24  1  0  0  0
M  END
>  <$CLUSTER>
626

>  <CHROM.0>
3.40056091,172.57930550,168.24455138

>  <CHROM.1>
-4.38212067,4.32826491,10.94838460,-2.37672524,1.29126898,-0.21003968

>  <INDEX>
409469

>  <Name>
Enamine T0503-9700

>  <RI>
-2.07807e+09

>  <Rbt.Current_Directory>
/aloy/home/acomajuncosa/PocketVec_v2/GitLab_repo

>  <Rbt.Executable>
rbdock ($Id: //depot/dev/client3/rdock/2021.1/src/exe/rbdock.cxx#4 $)

>  <Rbt.Library>
libRbt.so (2021.1, Build901 2021/07/19)

>  <Rbt.Parameter_File>
examples/2_pocketvec/rDock_results/dock.prm

>  <Rbt.Receptor>
examples/2_pocketvec/rDock_results/st_parameters.prm

>  <SCORE>
-9.1499

>  <SCORE.INTER>
-6.68508

>  <SCORE.INTER.CONST>
1

>  <SCORE.INTER.POLAR>
0

>  <SCORE.INTER.REPUL>
0

>  <SCORE.INTER.ROT>
4

>  <SCORE.INTER.VDW>
-16.0851

>  <SCORE.INTER.norm>
-0.278545

>  <SCORE.INTRA>
1.50663e-12

>  <SCORE.INTRA.DIHEDRAL>
-2.62901e-13

>  <SCORE.INTRA.DIHEDRAL.0>
6.25719

>  <SCORE.INTRA.POLAR>
0

>  <SCORE.INTRA.POLAR.0>
0

>  <SCORE.INTRA.REPUL>
0

>  <SCORE.INTRA.REPUL.0>
0

>  <SCORE.INTRA.VDW>
1.63808e-12

>  <SCORE.INTRA.VDW.0>
0.143582

>  <SCORE.INTRA.norm>
6.27762e-14

>  <SCORE.RESTR>
0

>  <SCORE.RESTR.CAVITY>
0

>  <SCORE.RESTR.norm>
0

>  <SCORE.SYSTEM>
-2.46482

>  <SCORE.SYSTEM.CONST>
0

>  <SCORE.SYSTEM.DIHEDRAL>
1.00611

>  <SCORE.SYSTEM.POLAR>
-0.994987

>  <SCORE.SYSTEM.REPUL>
0.0018921

>  <SCORE.SYSTEM.VDW>
0.405621

>  <SCORE.SYSTEM.norm>
-0.102701

>  <SCORE.heavy>
24

>  <SCORE.norm>
-0.381246

$$$$
Tripos 1513-09513
  rDOCK(R)          3D
libRbt.so/2021.1/901 2021/07/19
 28 30  0  0  0  0  0  0  0  0999 V2000
   -4.5909    6.4744   11.2755 S   0  0  0  0  0  0
   -4.4705    5.4558   12.6062 N   0  0  0  0  0  0
   -4.6665    3.3625   14.6569 N   0  0  0  0  0  0
   -3.9284    4.0890   12.3891 C   0  0  0  0  0  0
   -3.5399    3.3471   13.6900 C   0  0  0  0  0  0
   -5.0220    2.2317   15.4221 C   0  0  0  0  0  0
   -3.2193    7.4103   12.3113 C   0  0  0  0  0  0
   -5.6429    5.3573   13.5130 C   0  0  0  0  0  0
   -5.3490    4.6584   14.8535 C   0  0  0  0  0  0
   -3.8789    6.0609   10.1336 O   0  0  0  0  0  0
   -5.6658    7.3830   11.3062 O   0  0  0  0  0  0
   -0.2959   11.0774   14.7064 C   0  0  0  0  0  0
   -0.1935    9.9918   13.8477 N   0  0  0  0  0  0
   -5.5197    2.3629   16.7319 C   0  0  0  0  0  0
   -1.3130   11.5559   15.2003 O   0  0  0  0  0  0
   -3.5720    8.5829   13.0603 C   0  0  0  0  0  0
   -1.8441    7.3424   11.8892 C   0  0  0  0  0  0
   -1.2442    9.1625   13.3642 C   0  0  0  0  0  0
   -5.8716    1.2498   17.5008 C   0  0  0  0  0  0
   -2.5919    9.3815   13.6525 C   0  0  0  0  0  0
   -0.8696    8.1457   12.4855 C   0  0  0  0  0  0
   -4.8988    0.9239   14.9186 C   0  0  0  0  0  0
   -2.3023    3.9652   14.3515 C   0  0  0  0  0  0
   -5.2516   -0.1935   15.6824 C   0  0  0  0  0  0
    1.0593   11.6655   15.0077 C   0  0  0  0  0  0
   -5.7377   -0.0313   16.9761 C   0  0  0  0  0  0
   -6.3920    1.4373   18.8892 C   0  0  0  0  0  0
    0.7370    9.7629   13.5281 H   0  0  0  0  0  0
  1  2  1  0  0  0
  1  7  1  0  0  0
  1 10  2  0  0  0
  1 11  2  0  0  0
  2  4  1  0  0  0
  2  8  1  0  0  0
  3  5  1  0  0  0
  3  6  1  0  0  0
  3  9  1  0  0  0
  4  5  1  0  0  0
  5 23  1  0  0  0
  6 14  2  0  0  0
  6 22  1  0  0  0
  7 16  2  0  0  0
  7 17  1  0  0  0
  8  9  1  0  0  0
 12 13  1  0  0  0
 12 15  2  0  0  0
 12 25  1  0  0  0
 13 18  1  0  0  0
 13 28  1  0  0  0
 14 19  1  0  0  0
 16 20  1  0  0  0
 17 21  2  0  0  0
 18 20  2  0  0  0
 18 21  1  0  0  0
 19 26  2  0  0  0
 19 27  1  0  0  0
 22 24  2  0  0  0
 24 26  1  0  0  0
M  END
>  <$CLUSTER>
690

>  <CHROM.0>
178.90249794,171.63955286,73.56856565

>  <CHROM.1>
-3.62145151,5.75023884,13.92342707,0.69991024,-0.97316683,-1.08009294

>  <INDEX>
441294

>  <Name>
Tripos 1513-09513

>  <RI>
-2.07807e+09

>  <Rbt.Current_Directory>
/aloy/home/acomajuncosa/PocketVec_v2/GitLab_repo

>  <Rbt.Executable>
rbdock ($Id: //depot/dev/client3/rdock/2021.1/src/exe/rbdock.cxx#4 $)

>  <Rbt.Library>
libRbt.so (2021.1, Build901 2021/07/19)

>  <Rbt.Parameter_File>
examples/2_pocketvec/rDock_results/dock.prm

>  <Rbt.Receptor>
examples/2_pocketvec/rDock_results/st_parameters.prm

>  <SCORE>
-12.8393

>  <SCORE.INTER>
-7.38457

>  <SCORE.INTER.CONST>
1

>  <SCORE.INTER.POLAR>
0

>  <SCORE.INTER.REPUL>
0

>  <SCORE.INTER.ROT>
4

>  <SCORE.INTER.VDW>
-16.7846

>  <SCORE.INTER.norm>
-0.273503

>  <SCORE.INTRA>
-5.65992e-13

>  <SCORE.INTRA.DIHEDRAL>
-3.51719e-13

>  <SCORE.INTRA.DIHEDRAL.0>
7.5142

>  <SCORE.INTRA.POLAR>
0

>  <SCORE.INTRA.POLAR.0>
0

>  <SCORE.INTRA.REPUL>
0

>  <SCORE.INTRA.REPUL.0>
0

>  <SCORE.INTRA.VDW>
-3.90132e-13

>  <SCORE.INTRA.VDW.0>
-1.92893

>  <SCORE.INTRA.norm>
-2.09627e-14

>  <SCORE.RESTR>
0

>  <SCORE.RESTR.CAVITY>
0

>  <SCORE.RESTR.norm>
0

>  <SCORE.SYSTEM>
-5.45473

>  <SCORE.SYSTEM.CONST>
0

>  <SCORE.SYSTEM.DIHEDRAL>
1.2778

>  <SCORE.SYSTEM.POLAR>
-1.74316

>  <SCORE.SYSTEM.VDW>
-0.166873

>  <SCORE.SYSTEM.norm>
-0.202027

>  <SCORE.heavy>
27

>  <SCORE.norm>
-0.47553

$$$$
Chembridge 7916788
  rDOCK(R)          3D
libRbt.so/2021.1/901 2021/07/19
 22 23  0  0  0  0  0  0  0  0999 V2000
   -1.3667    4.9614   13.7289 S   0  0  0  0  0  0
   -1.6096    3.5332   12.8115 N   0  0  0  0  0  0
   -2.6877    5.9750   13.1027 C   0  0  0  0  0  0
   -1.6841    4.6626   15.1130 O   0  0  0  0  0  0
   -0.1122    5.5990   13.3815 O   0  0  0  0  0  0
   -2.4471    6.8333   12.0102 C   0  0  0  0  0  0
   -3.9420    5.9924   13.7287 C   0  0  0  0  0  0
   -1.2546    3.5565   11.4180 C   0  0  0  0  0  0
   -4.7153    7.6595   12.1577 C   0  0  0  0  0  0
   -5.9711    8.7797   11.5154 S   0  0  0  0  0  0
   -0.6150    3.6425    8.7025 C   0  0  0  0  0  0
   -3.4643    7.6642   11.5377 C   0  0  0  0  0  0
   -4.9540    6.8253   13.2512 C   0  0  0  0  0  0
   -2.2696    3.4942   10.4584 C   0  0  0  0  0  0
    0.0795    3.6626   11.0187 C   0  0  0  0  0  0
   -1.9471    3.5364    9.1015 C   0  0  0  0  0  0
    0.3967    3.7043    9.6604 C   0  0  0  0  0  0
   -0.4268    3.6742    7.3369 O   0  0  0  0  0  0
   -7.4515    7.7356   11.5899 C   0  0  0  0  0  0
    0.9167    3.7818    6.8675 C   0  0  0  0  0  0
    0.8804    3.7988    5.3494 C   0  0  0  0  0  0
   -1.9909    2.7004   13.2371 H   0  0  0  0  0  0
  1  2  1  0  0  0
  1  3  1  0  0  0
  1  4  2  0  0  0
  1  5  2  0  0  0
  2  8  1  0  0  0
  2 22  1  0  0  0
  3  6  2  0  0  0
  3  7  1  0  0  0
  6 12  1  0  0  0
  7 13  2  0  0  0
  8 14  2  0  0  0
  8 15  1  0  0  0
  9 10  1  0  0  0
  9 12  2  0  0  0
  9 13  1  0  0  0
 10 19  1  0  0  0
 11 16  2  0  0  0
 11 17  1  0  0  0
 11 18  1  0  0  0
 14 16  1  0  0  0
 15 17  2  0  0  0
 18 20  1  0  0  0
 20 21  1  0  0  0
M  END
>  <$CLUSTER>
716

>  <CHROM.0>
-0.25691091,172.31969209,73.60998083

>  <CHROM.1>
-2.26993198,5.36589385,11.29526215,-2.53072239,0.64963601,-1.56435482

>  <INDEX>
90607

>  <Name>
Chembridge 7916788

>  <RI>
-2.07807e+09

>  <Rbt.Current_Directory>
/aloy/home/acomajuncosa/PocketVec_v2/GitLab_repo

>  <Rbt.Executable>
rbdock ($Id: //depot/dev/client3/rdock/2021.1/src/exe/rbdock.cxx#4 $)

>  <Rbt.Library>
libRbt.so (2021.1, Build901 2021/07/19)

>  <Rbt.Parameter_File>
examples/2_pocketvec/rDock_results/dock.prm

>  <Rbt.Receptor>
examples/2_pocketvec/rDock_results/st_parameters.prm

>  <SCORE>
-8.74048

>  <SCORE.INTER>
-3.13295

>  <SCORE.INTER.CONST>
1

>  <SCORE.INTER.POLAR>
-0.486657

>  <SCORE.INTER.REPUL>
0

>  <SCORE.INTER.ROT>
6

>  <SCORE.INTER.VDW>
-12.8783

>  <SCORE.INTER.norm>
-0.149188

>  <SCORE.INTRA>
-1.24012e-12

>  <SCORE.INTRA.DIHEDRAL>
-4.05187e-12

>  <SCORE.INTRA.DIHEDRAL.0>
15.5061

>  <SCORE.INTRA.POLAR>
0

>  <SCORE.INTRA.POLAR.0>
0

>  <SCORE.INTRA.REPUL>
0

>  <SCORE.INTRA.REPUL.0>
0

>  <SCORE.INTRA.VDW>
7.85816e-13

>  <SCORE.INTRA.VDW.0>
-1.35158

>  <SCORE.INTRA.norm>
-5.90533e-14

>  <SCORE.RESTR>
0

>  <SCORE.RESTR.CAVITY>
0

>  <SCORE.RESTR.norm>
0

>  <SCORE.SYSTEM>
-5.60754

>  <SCORE.SYSTEM.CONST>
0

>  <SCORE.SYSTEM.DIHEDRAL>
1.22818

>  <SCORE.SYSTEM.POLAR>
-1.74351

>  <SCORE.SYSTEM.VDW>
-0.293707

>  <SCORE.SYSTEM.norm>
-0.267026

>  <SCORE.heavy>
21

>  <SCORE.norm>
-0.416214

$$$$
Asinex ASN 03798095
  rDOCK(R)          3D
libRbt.so/2021.1/901 2021/07/19
 29 31  0  0  0  0  0  0  0  0999 V2000
   -4.5495    2.2853   11.8898 S   0  0  0  0  0  0
   -4.6085    3.5471   12.9883 N   0  0  0  0  0  0
   -3.0549    2.5842   11.0145 C   0  0  0  0  0  0
    0.8178    3.9258    7.7719 C   0  0  0  0  0  0
    3.1845    4.4997    8.3948 N   0  3  0  0  0  0
   -5.6634    2.4527   10.9713 O   0  0  0  0  0  0
   -4.4104    1.0526   12.6436 O   0  0  0  0  0  0
    0.5612    3.1858    8.9188 N   0  0  0  0  0  0
   -3.6150    3.5517   14.0955 C   0  0  0  0  0  0
   -4.8409    4.9185   12.4627 C   0  0  0  0  0  0
    2.2747    3.8466    7.3871 C   0  0  0  0  0  0
    0.0267    4.5818    7.1033 O   0  0  0  0  0  0
   -3.0599    3.3830    9.8736 C   0  0  0  0  0  0
   -1.8655    2.0017   11.4427 C   0  0  0  0  0  0
   -0.6798    3.0210    9.5784 C   0  0  0  0  0  0
    4.6163    4.1015    8.2086 C   0  0  0  0  0  0
    3.0407    6.0013    8.4497 C   0  0  0  0  0  0
   -0.6857    2.2183   10.7293 C   0  0  0  0  0  0
   -1.8789    3.6020    9.1561 C   0  0  0  0  0  0
   -5.2406    5.9038   13.5559 C   0  0  0  0  0  0
   -3.9945    4.5146   15.2167 C   0  0  0  0  0  0
    5.4913    4.6659    9.3216 C   0  0  0  0  0  0
    3.8783    6.5882    9.5582 C   0  0  0  0  0  0
   -4.2225    5.9357   14.6976 C   0  0  0  0  0  0
    5.3538    6.1904    9.4193 C   0  0  0  0  0  0
   -4.6819    6.8639   15.8196 C   0  0  0  0  0  0
    6.1791    6.7390   10.5830 C   0  0  0  0  0  0
    2.8800    4.1492    9.2924 H   0  0  0  0  0  0
    1.3520    2.7098    9.3300 H   0  0  0  0  0  0
  1  2  1  0  0  0
  1  3  1  0  0  0
  1  6  2  0  0  0
  1  7  2  0  0  0
  2  9  1  0  0  0
  2 10  1  0  0  0
  3 13  1  0  0  0
  3 14  2  0  0  0
  4  8  1  0  0  0
  4 11  1  0  0  0
  4 12  2  0  0  0
  5 11  1  0  0  0
  5 16  1  0  0  0
  5 17  1  0  0  0
  5 28  1  0  0  0
  8 15  1  0  0  0
  8 29  1  0  0  0
  9 21  1  0  0  0
 10 20  1  0  0  0
 13 19  2  0  0  0
 14 18  1  0  0  0
 15 18  2  0  0  0
 15 19  1  0  0  0
 16 22  1  0  0  0
 17 23  1  0  0  0
 20 24  1  0  0  0
 21 24  1  0  0  0
 22 25  1  0  0  0
 23 25  1  0  0  0
 24 26  1  0  0  0
 25 27  1  0  0  0
M  END
>  <$CLUSTER>
206

>  <CHROM.0>
3.03786765,172.15646057,73.99477700

>  <CHROM.1>
-0.98122648,4.07579448,10.85309489,2.86936156,0.41451136,0.90534637

>  <INDEX>
134924

>  <Name>
Asinex ASN 03798095

>  <RI>
-2.07807e+09

>  <Rbt.Current_Directory>
/aloy/home/acomajuncosa/PocketVec_v2/GitLab_repo

>  <Rbt.Executable>
rbdock ($Id: //depot/dev/client3/rdock/2021.1/src/exe/rbdock.cxx#4 $)

>  <Rbt.Library>
libRbt.so (2021.1, Build901 2021/07/19)

>  <Rbt.Parameter_File>
examples/2_pocketvec/rDock_results/dock.prm

>  <Rbt.Receptor>
examples/2_pocketvec/rDock_results/st_parameters.prm

>  <SCORE>
-13.6957

>  <SCORE.INTER>
-8.08614

>  <SCORE.INTER.CONST>
1

>  <SCORE.INTER.POLAR>
-0.774597

>  <SCORE.INTER.REPUL>
0

>  <SCORE.INTER.ROT>
5

>  <SCORE.INTER.VDW>
-15.8525

>  <SCORE.INTER.norm>
-0.299487

>  <SCORE.INTRA>
-3.5727e-13

>  <SCORE.INTRA.DIHEDRAL>
5.55556e-13

>  <SCORE.INTRA.DIHEDRAL.0>
3.11177

>  <SCORE.INTRA.POLAR>
0

>  <SCORE.INTRA.POLAR.0>
0

>  <SCORE.INTRA.REPUL>
0

>  <SCORE.INTRA.REPUL.0>
0

>  <SCORE.INTRA.VDW>
-6.35048e-13

>  <SCORE.INTRA.VDW.0>
-2.50783

>  <SCORE.INTRA.norm>
-1.32322e-14

>  <SCORE.RESTR>
0

>  <SCORE.RESTR.CAVITY>
0

>  <SCORE.RESTR.norm>
0

>  <SCORE.SYSTEM>
-5.60956

>  <SCORE.SYSTEM.CONST>
0

>  <SCORE.SYSTEM.DIHEDRAL>
1.29547

>  <SCORE.SYSTEM.POLAR>
-1.74667

>  <SCORE.SYSTEM.VDW>
-0.318618

>  <SCORE.SYSTEM.norm>
-0.207762

>  <SCORE.heavy>
27

>  <SCORE.norm>
-0.507248

$$$$
Life Chemicals F1895-0070
  rDOCK(R)          3D
libRbt.so/2021.1/901 2021/07/19
 33 36  0  0  0  0  0  0  0  0999 V2000
   -1.7654    5.1417    9.9096 C   0  0  0  0  0  0
   -1.4333    4.7438   11.1820 N   0  0  0  0  0  0
   -1.6323    4.4957    8.8083 N   0  0  0  0  0  0
   -0.8563    3.4735   11.3106 C   0  0  0  0  0  0
   -4.8363    3.6593   12.5573 C   0  0  0  0  0  0
   -0.6611    2.7495   10.2043 C   0  0  0  0  0  0
   -4.6775    2.3562   12.6532 N   0  0  0  0  0  0
   -1.0208    3.2737    8.8845 C   0  0  0  0  0  0
   -5.3564    4.4433   13.9861 S   0  0  0  0  0  0
   -4.5996    4.3542   11.3835 N   0  0  0  0  0  0
   -5.3748    2.9386   14.8023 C   0  0  0  0  0  0
   -4.9848    1.9439   13.9343 C   0  0  0  0  0  0
   -2.6596    6.6983    9.6510 S   0  0  0  0  0  0
   -1.6203    5.5667   12.3285 C   0  0  0  0  0  0
   -4.7360    5.7211   11.1802 C   0  0  0  0  0  0
   -0.4542    2.9228   12.5029 N   0  0  0  0  0  0
   -5.7216    2.6693   16.1461 C   0  0  0  0  0  0
   -0.7753    2.6019    7.8866 O   0  0  0  0  0  0
   -5.0876    6.5816   11.9817 O   0  0  0  0  0  0
   -4.9272    0.6027   14.4039 C   0  0  0  0  0  0
   -4.3838    6.0923    9.7605 C   0  0  0  0  0  0
   -0.8638    6.7360   12.5120 C   0  0  0  0  0  0
   -2.5706    5.2310   13.3088 C   0  0  0  0  0  0
   -5.6590    1.3458   16.5895 C   0  0  0  0  0  0
   -2.0144    7.2057   14.5851 C   0  0  0  0  0  0
   -5.2674    0.3240   15.7306 C   0  0  0  0  0  0
   -2.7684    6.0443   14.4265 C   0  0  0  0  0  0
   -1.0605    7.5503   13.6299 C   0  0  0  0  0  0
   -2.2680    7.9287   15.6762 F   0  0  0  0  0  0
   -6.0210    1.0287   18.0101 C   0  0  0  0  0  0
   -4.2949    3.8081   10.5899 H   0  0  0  0  0  0
   -0.0305    2.0060   12.5189 H   0  0  0  0  0  0
   -0.5823    3.4345   13.3636 H   0  0  0  0  0  0
  1  2  1  0  0  0
  1  3  2  0  0  0
  1 13  1  0  0  0
  2  4  1  0  0  0
  2 14  1  0  0  0
  3  8  1  0  0  0
  4  6  2  0  0  0
  4 16  1  0  0  0
  5  7  2  0  0  0
  5  9  1  0  0  0
  5 10  1  0  0  0
  6  8  1  0  0  0
  7 12  1  0  0  0
  8 18  2  0  0  0
  9 11  1  0  0  0
 10 15  1  0  0  0
 10 31  1  0  0  0
 11 12  2  0  0  0
 11 17  1  0  0  0
 12 20  1  0  0  0
 13 21  1  0  0  0
 14 22  1  0  0  0
 14 23  2  0  0  0
 15 19  2  0  0  0
 15 21  1  0  0  0
 16 32  1  0  0  0
 16 33  1  0  0  0
 17 24  2  0  0  0
 20 26  2  0  0  0
 22 28  2  0  0  0
 23 27  1  0  0  0
 24 26  1  0  0  0
 24 30  1  0  0  0
 25 27  2  0  0  0
 25 28  1  0  0  0
 25 29  1  0  0  0
M  END
>  <$CLUSTER>
462

>  <CHROM.0>
176.98243189,173.85103501,67.58346947

>  <CHROM.1>
-3.25085041,4.36792137,12.59558892,0.04922620,-1.05021144,-2.59955934

>  <INDEX>
302198

>  <Name>
Life Chemicals F1895-0070

>  <RI>
-2.07807e+09

>  <Rbt.Current_Directory>
/aloy/home/acomajuncosa/PocketVec_v2/GitLab_repo

>  <Rbt.Executable>
rbdock ($Id: //depot/dev/client3/rdock/2021.1/src/exe/rbdock.cxx#4 $)

>  <Rbt.Library>
libRbt.so (2021.1, Build901 2021/07/19)

>  <Rbt.Parameter_File>
examples/2_pocketvec/rDock_results/dock.prm

>  <Rbt.Receptor>
examples/2_pocketvec/rDock_results/st_parameters.prm

>  <SCORE>
-15.4472

>  <SCORE.INTER>
-10.161

>  <SCORE.INTER.CONST>
1

>  <SCORE.INTER.POLAR>
-0.47553

>  <SCORE.INTER.REPUL>
0

>  <SCORE.INTER.ROT>
5

>  <SCORE.INTER.VDW>
-18.9442

>  <SCORE.INTER.norm>
-0.338701

>  <SCORE.INTRA>
1.36513e-12

>  <SCORE.INTRA.DIHEDRAL>
2.8777e-13

>  <SCORE.INTRA.DIHEDRAL.0>
14.3506

>  <SCORE.INTRA.POLAR>
0

>  <SCORE.INTRA.POLAR.0>
0

>  <SCORE.INTRA.REPUL>
0

>  <SCORE.INTRA.REPUL.0>
0

>  <SCORE.INTRA.VDW>
1.22125e-12

>  <SCORE.INTRA.VDW.0>
-4.79182

>  <SCORE.INTRA.norm>
4.55043e-14

>  <SCORE.RESTR>
0

>  <SCORE.RESTR.CAVITY>
0

>  <SCORE.RESTR.norm>
0

>  <SCORE.SYSTEM>
-5.28614

>  <SCORE.SYSTEM.CONST>
0

>  <SCORE.SYSTEM.DIHEDRAL>
0.553439

>  <SCORE.SYSTEM.POLAR>
-1.69237

>  <SCORE.SYSTEM.VDW>
0.191194

>  <SCORE.SYSTEM.norm>
-0.176205

>  <SCORE.heavy>
30

>  <SCORE.norm>
-0.514905

$$$$
Asinex BAS 05101595
  rDOCK(R)          3D
libRbt.so/2021.1/901 2021/07/19
 31 34  0  0  0  0  0  0  0  0999 V2000
   -3.2568    6.4149   12.8639 C   0  0  0  0  0  0
   -3.0421    7.5033   11.8298 C   0  0  0  0  0  0
   -2.3750    8.6249   12.2643 N   0  0  0  0  0  0
   -4.2074    4.1882   13.3592 N   0  0  0  0  0  0
   -2.7874    6.6265   14.0916 C   0  0  0  0  0  0
   -5.3801    4.2342   14.1187 C   0  0  0  0  0  0
   -1.9126    8.7977   13.5425 C   0  0  0  0  0  0
   -3.9979    5.2028   12.3217 C   0  0  0  0  0  0
   -2.0968    7.8425   14.4598 C   0  0  0  0  0  0
   -5.5594    3.1584   15.1614 C   0  0  0  0  0  0
   -3.1468    3.1856   13.5283 C   0  0  0  0  0  0
   -3.4425    7.3824   10.6747 O   0  0  0  0  0  0
   -6.2503    5.0992   13.9867 O   0  0  0  0  0  0
   -1.2299   10.0046   13.8930 C   0  0  0  0  0  0
   -1.6267    7.9928   15.7996 C   0  0  0  0  0  0
   -6.8536    2.8404   15.5415 C   0  0  0  0  0  0
   -4.4634    2.5140   15.7255 C   0  0  0  0  0  0
   -0.7629   10.1727   15.1951 C   0  0  0  0  0  0
   -3.3108    2.0187   12.5660 C   0  0  0  0  0  0
   -0.9589    9.1701   16.1459 C   0  0  0  0  0  0
   -7.0636    1.8491   16.5026 C   0  0  0  0  0  0
   -4.6794    1.5233   16.6866 C   0  0  0  0  0  0
   -5.9761    1.1901   17.0731 C   0  0  0  0  0  0
   -0.0501   11.4310   15.5729 C   0  0  0  0  0  0
   -6.2034    0.1264   18.0978 C   0  0  0  0  0  0
   -2.5659    1.9664   11.3815 C   0  0  0  0  0  0
   -4.2269    0.9954   12.8475 C   0  0  0  0  0  0
   -2.7161    0.8896   10.5021 C   0  0  0  0  0  0
   -4.3750   -0.0794   11.9684 C   0  0  0  0  0  0
   -3.6182   -0.1332   10.7969 C   0  0  0  0  0  0
   -2.2162    9.3679   11.5994 H   0  0  0  0  0  0
  1  2  1  0  0  0
  1  5  2  0  0  0
  1  8  1  0  0  0
  2  3  1  0  0  0
  2 12  2  0  0  0
  3  7  1  0  0  0
  3 31  1  0  0  0
  4  6  1  0  0  0
  4  8  1  0  0  0
  4 11  1  0  0  0
  5  9  1  0  0  0
  6 10  1  0  0  0
  6 13  2  0  0  0
  7  9  2  0  0  0
  7 14  1  0  0  0
  9 15  1  0  0  0
 10 16  2  0  0  0
 10 17  1  0  0  0
 11 19  1  0  0  0
 14 18  2  0  0  0
 15 20  2  0  0  0
 16 21  1  0  0  0
 17 22  2  0  0  0
 18 20  1  0  0  0
 18 24  1  0  0  0
 19 26  2  0  0  0
 19 27  1  0  0  0
 21 23  2  0  0  0
 22 23  1  0  0  0
 23 25  1  0  0  0
 26 28  1  0  0  0
 27 29  2  0  0  0
 28 30  2  0  0  0
 29 30  1  0  0  0
M  END
>  <$CLUSTER>
222

>  <CHROM.0>
1.95020323,171.81007067,73.91552889

>  <CHROM.1>
-3.61599903,4.78586711,13.93488433,-0.58911099,-1.07177764,-2.24723780

>  <INDEX>
181503

>  <Name>
Asinex BAS 05101595

>  <RI>
-2.07807e+09

>  <Rbt.Current_Directory>
/aloy/home/acomajuncosa/PocketVec_v2/GitLab_repo

>  <Rbt.Executable>
rbdock ($Id: //depot/dev/client3/rdock/2021.1/src/exe/rbdock.cxx#4 $)

>  <Rbt.Library>
libRbt.so (2021.1, Build901 2021/07/19)

>  <Rbt.Parameter_File>
examples/2_pocketvec/rDock_results/dock.prm

>  <Rbt.Receptor>
examples/2_pocketvec/rDock_results/st_parameters.prm

>  <SCORE>
-16.0694

>  <SCORE.INTER>
-10.4589

>  <SCORE.INTER.CONST>
1

>  <SCORE.INTER.POLAR>
0

>  <SCORE.INTER.REPUL>
0

>  <SCORE.INTER.ROT>
5

>  <SCORE.INTER.VDW>
-20.8589

>  <SCORE.INTER.norm>
-0.348629

>  <SCORE.INTRA>
-9.17488e-13

>  <SCORE.INTRA.DIHEDRAL>
-5.48006e-13

>  <SCORE.INTRA.DIHEDRAL.0>
6.24868

>  <SCORE.INTRA.POLAR>
0

>  <SCORE.INTRA.POLAR.0>
0

>  <SCORE.INTRA.REPUL>
0

>  <SCORE.INTRA.REPUL.0>
0

>  <SCORE.INTRA.VDW>
-6.43485e-13

>  <SCORE.INTRA.VDW.0>
1.231

>  <SCORE.INTRA.norm>
-3.05829e-14

>  <SCORE.RESTR>
0

>  <SCORE.RESTR.CAVITY>
0

>  <SCORE.RESTR.norm>
0

>  <SCORE.SYSTEM>
-5.61049

>  <SCORE.SYSTEM.CONST>
0

>  <SCORE.SYSTEM.DIHEDRAL>
1.30578

>  <SCORE.SYSTEM.POLAR>
-1.74602

>  <SCORE.SYSTEM.VDW>
-0.326911

>  <SCORE.SYSTEM.norm>
-0.187016

>  <SCORE.heavy>
30

>  <SCORE.norm>
-0.535645

$$$$
InterBioScreen STOCK4S-15128
  rDOCK(R)          3D
libRbt.so/2021.1/901 2021/07/19
 32 35  0  0  0  0  0  0  0  0999 V2000
   -4.2686    2.0829   14.6548 C   0  0  0  0  0  0
   -4.1116    1.1643   13.6278 C   0  0  0  0  0  0
   -3.2563    3.6282   13.1698 N   0  0  0  0  0  0
   -3.1641    2.6122   12.2304 C   0  0  0  0  0  0
   -3.5646    1.3916   12.3997 N   0  0  0  0  0  0
   -3.8053    3.4474   14.4377 C   0  0  0  0  0  0
   -4.8842    1.5050   15.8051 C   0  0  0  0  0  0
   -4.6975   -0.3809   14.0663 S   0  0  0  0  0  0
   -5.1521    0.1659   15.6096 C   0  0  0  0  0  0
   -2.6540    2.9418   10.5569 S   0  0  0  0  0  0
   -2.6217    4.9523   12.8992 C   0  0  0  0  0  0
   -5.2107    2.1560   17.1112 C   0  0  0  0  0  0
   -5.7817   -0.0933   17.9003 O   0  0  0  0  0  0
   -3.8879    4.3358   15.2792 O   0  0  0  0  0  0
   -6.1935    1.2894   17.9409 C   0  0  0  0  0  0
   -5.8092   -0.7235   16.6078 C   0  0  0  0  0  0
   -2.8001    0.2152   10.1909 C   0  0  0  0  0  0
   -3.6541    0.0365    9.3243 O   0  0  0  0  0  0
   -1.8218    1.3822   10.1810 C   0  0  0  0  0  0
   -1.2857    5.0788   12.4856 C   0  0  0  0  0  0
   -3.3706    6.1177   13.1252 C   0  0  0  0  0  0
   -2.6755   -0.6165   11.2580 N   0  0  0  0  0  0
   -1.4879    7.4879   12.4798 C   0  0  0  0  0  0
   -0.7254    6.3404   12.2723 C   0  0  0  0  0  0
   -2.8074    7.3769   12.9085 C   0  0  0  0  0  0
   -1.0472    8.7800   12.3119 O   0  0  0  0  0  0
   -7.6486    1.4550   17.4732 C   0  0  0  0  0  0
   -6.1091    1.7071   19.4164 C   0  0  0  0  0  0
    0.3017    8.9571   11.8773 C   0  0  0  0  0  0
    0.5607   10.4475   11.7576 C   0  0  0  0  0  0
   -3.2943   -1.4086   11.3558 H   0  0  0  0  0  0
   -1.9637   -0.4426   11.9528 H   0  0  0  0  0  0
  1  2  2  0  0  0
  1  6  1  0  0  0
  1  7  1  0  0  0
  2  5  1  0  0  0
  2  8  1  0  0  0
  3  4  1  0  0  0
  3  6  1  0  0  0
  3 11  1  0  0  0
  4  5  2  0  0  0
  4 10  1  0  0  0
  6 14  2  0  0  0
  7  9  2  0  0  0
  7 12  1  0  0  0
  8  9  1  0  0  0
  9 16  1  0  0  0
 10 19  1  0  0  0
 11 20  2  0  0  0
 11 21  1  0  0  0
 12 15  1  0  0  0
 13 15  1  0  0  0
 13 16  1  0  0  0
 15 27  1  0  0  0
 15 28  1  0  0  0
 17 18  2  0  0  0
 17 19  1  0  0  0
 17 22  1  0  0  0
 20 24  1  0  0  0
 21 25  2  0  0  0
 22 31  1  0  0  0
 22 32  1  0  0  0
 23 24  2  0  0  0
 23 25  1  0  0  0
 23 26  1  0  0  0
 26 29  1  0  0  0
 29 30  1  0  0  0
M  END
>  <$CLUSTER>
515

>  <CHROM.0>
177.67014431,173.48705733,167.98336577

>  <CHROM.1>
-3.47242315,3.01712188,13.60304054,2.83422122,-1.03712378,-2.49191673

>  <INDEX>
350677

>  <Name>
InterBioScreen STOCK4S-15128

>  <RI>
-2.07807e+09

>  <Rbt.Current_Directory>
/aloy/home/acomajuncosa/PocketVec_v2/GitLab_repo

>  <Rbt.Executable>
rbdock ($Id: //depot/dev/client3/rdock/2021.1/src/exe/rbdock.cxx#4 $)

>  <Rbt.Library>
libRbt.so (2021.1, Build901 2021/07/19)

>  <Rbt.Parameter_File>
examples/2_pocketvec/rDock_results/dock.prm

>  <Rbt.Receptor>
examples/2_pocketvec/rDock_results/st_parameters.prm

>  <SCORE>
-14.1083

>  <SCORE.INTER>
-11.7954

>  <SCORE.INTER.CONST>
1

>  <SCORE.INTER.POLAR>
-1.5704

>  <SCORE.INTER.REPUL>
0.0517152

>  <SCORE.INTER.ROT>
6

>  <SCORE.INTER.VDW>
-18.1146

>  <SCORE.INTER.norm>
-0.393181

>  <SCORE.INTRA>
-5.43565e-13

>  <SCORE.INTRA.DIHEDRAL>
-8.93507e-13

>  <SCORE.INTRA.DIHEDRAL.0>
10.9592

>  <SCORE.INTRA.POLAR>
0

>  <SCORE.INTRA.POLAR.0>
0

>  <SCORE.INTRA.REPUL>
0

>  <SCORE.INTRA.REPUL.0>
0

>  <SCORE.INTRA.VDW>
-9.68114e-14

>  <SCORE.INTRA.VDW.0>
0.0868125

>  <SCORE.INTRA.norm>
-1.81188e-14

>  <SCORE.RESTR>
0

>  <SCORE.RESTR.CAVITY>
0

>  <SCORE.RESTR.norm>
0

>  <SCORE.SYSTEM>
-2.31291

>  <SCORE.SYSTEM.CONST>
0

>  <SCORE.SYSTEM.DIHEDRAL>
0.975419

>  <SCORE.SYSTEM.POLAR>
-0.994987

>  <SCORE.SYSTEM.REPUL>
6.5555e-05

>  <SCORE.SYSTEM.VDW>
0.582014

>  <SCORE.SYSTEM.norm>
-0.0770968

>  <SCORE.heavy>
30

>  <SCORE.norm>
-0.470278

$$$$
Asinex ASN 05588575
  rDOCK(R)          3D
libRbt.so/2021.1/901 2021/07/19
 31 34  0  0  0  0  0  0  0  0999 V2000
   -3.1794    2.1863   10.3769 N   0  0  0  0  0  0
   -1.9966    5.4003   13.6154 C   0  0  0  0  0  0
   -2.4010    4.8741   12.3740 C   0  0  0  0  0  0
   -3.2503    3.8233   12.2763 N   0  0  0  0  0  0
   -5.2397    0.3496   11.1392 N   0  0  0  0  0  0
   -2.8645    0.8564   10.8190 C   0  0  0  0  0  0
   -2.2393    3.0453    9.7838 C   0  0  0  0  0  0
   -5.6619    1.6001   10.8115 C   0  0  0  0  0  0
   -3.8973   -0.0276   11.1878 C   0  0  0  0  0  0
   -1.0990    6.5108   13.7279 C   0  0  0  0  0  0
   -4.5717    2.6361   10.5762 C   0  0  0  0  0  0
   -3.3720    3.7296   14.6870 C   0  0  0  0  0  0
   -3.7165    3.2754   13.4238 C   0  0  0  0  0  0
   -2.4982    4.8095   14.7822 C   0  0  0  0  0  0
   -0.3707    7.4108   13.8481 N   0  0  0  0  0  0
   -1.7982    5.5793   10.8117 S   0  0  0  0  0  0
   -2.6550    4.4964    9.6256 C   0  0  0  0  0  0
   -3.8853    3.1220   15.8470 C   0  0  0  0  0  0
   -6.8566    1.8955   10.7910 O   0  0  0  0  0  0
   -1.1298    2.7134    9.3686 O   0  0  0  0  0  0
   -4.6045    2.1783   13.3321 C   0  0  0  0  0  0
   -4.7594    2.0414   15.7377 C   0  0  0  0  0  0
   -5.1187    1.5692   14.4789 C   0  0  0  0  0  0
   -1.5455    0.3843   10.9231 C   0  0  0  0  0  0
   -5.1919    1.5349   16.9352 O   0  0  0  0  0  0
   -3.6194   -1.3361   11.6053 C   0  0  0  0  0  0
   -6.0889    0.4261   16.8833 C   0  0  0  0  0  0
   -1.2679   -0.9187   11.3472 C   0  0  0  0  0  0
   -2.3045   -1.7814   11.6827 C   0  0  0  0  0  0
   -6.4312    0.0347   18.3108 C   0  0  0  0  0  0
   -5.9382   -0.3455   11.3605 H   0  0  0  0  0  0
  1  6  1  0  0  0
  1  7  1  0  0  0
  1 11  1  0  0  0
  2  3  1  0  0  0
  2 10  1  0  0  0
  2 14  2  0  0  0
  3  4  2  0  0  0
  3 16  1  0  0  0
  4 13  1  0  0  0
  5  8  1  0  0  0
  5  9  1  0  0  0
  5 31  1  0  0  0
  6  9  2  0  0  0
  6 24  1  0  0  0
  7 17  1  0  0  0
  7 20  2  0  0  0
  8 11  1  0  0  0
  8 19  2  0  0  0
  9 26  1  0  0  0
 10 15  3  0  0  0
 12 13  2  0  0  0
 12 14  1  0  0  0
 12 18  1  0  0  0
 13 21  1  0  0  0
 16 17  1  0  0  0
 18 22  2  0  0  0
 21 23  2  0  0  0
 22 23  1  0  0  0
 22 25  1  0  0  0
 24 28  2  0  0  0
 25 27  1  0  0  0
 26 29  2  0  0  0
 27 30  1  0  0  0
 28 29  1  0  0  0
M  END
>  <$CLUSTER>
232

>  <CHROM.0>
135.37106897,171.47612686,73.64041835

>  <CHROM.1>
-3.42789915,2.52528490,12.62623064,0.17739094,-1.02536684,-2.22994880

>  <INDEX>
149658

>  <Name>
Asinex ASN 05588575

>  <RI>
-2.07807e+09

>  <Rbt.Current_Directory>
/aloy/home/acomajuncosa/PocketVec_v2/GitLab_repo

>  <Rbt.Executable>
rbdock ($Id: //depot/dev/client3/rdock/2021.1/src/exe/rbdock.cxx#4 $)

>  <Rbt.Library>
libRbt.so (2021.1, Build901 2021/07/19)

>  <Rbt.Parameter_File>
examples/2_pocketvec/rDock_results/dock.prm

>  <Rbt.Receptor>
examples/2_pocketvec/rDock_results/st_parameters.prm

>  <SCORE>
-9.83363

>  <SCORE.INTER>
-5.22165

>  <SCORE.INTER.CONST>
1

>  <SCORE.INTER.POLAR>
-0.325817

>  <SCORE.INTER.REPUL>
0

>  <SCORE.INTER.ROT>
5

>  <SCORE.INTER.VDW>
-14.5139

>  <SCORE.INTER.norm>
-0.174055

>  <SCORE.INTRA>
5.13256e-12

>  <SCORE.INTRA.DIHEDRAL>
2.28706e-13

>  <SCORE.INTRA.DIHEDRAL.0>
3.35762

>  <SCORE.INTRA.POLAR>
0

>  <SCORE.INTRA.POLAR.0>
0

>  <SCORE.INTRA.REPUL>
0

>  <SCORE.INTRA.REPUL.0>
0

>  <SCORE.INTRA.VDW>
5.01821e-12

>  <SCORE.INTRA.VDW.0>
5.77713

>  <SCORE.INTRA.norm>
1.71085e-13

>  <SCORE.RESTR>
0

>  <SCORE.RESTR.CAVITY>
0

>  <SCORE.RESTR.norm>
0

>  <SCORE.SYSTEM>
-4.61198

>  <SCORE.SYSTEM.CONST>
0

>  <SCORE.SYSTEM.DIHEDRAL>
3.71373

>  <SCORE.SYSTEM.POLAR>
-1.74376

>  <SCORE.SYSTEM.VDW>
-0.540075

>  <SCORE.SYSTEM.norm>
-0.153733

>  <SCORE.heavy>
30

>  <SCORE.norm>
-0.327788

$$$$
Biofocus 170_4347_0164
  rDOCK(R)          3D
libRbt.so/2021.1/901 2021/07/19
 24 26  0  0  0  0  0  0  0  0999 V2000
   -2.2837    4.7839   10.2619 N   0  0  0  0  0  0
   -1.6494    4.3940    9.0537 C   0  0  0  0  0  0
   -2.8869    3.6564   10.8434 C   0  0  0  0  0  0
   -1.8923    3.0008    8.9258 N   0  0  0  0  0  0
   -2.6445    2.5702   10.0213 C   0  0  0  0  0  0
   -3.5834    3.5711   11.9834 N   0  0  0  0  0  0
   -3.0801    1.3330   10.2814 N   0  0  0  0  0  0
   -4.0311    2.3253   12.2611 C   0  0  0  0  0  0
   -4.8246    2.1976   13.5490 C   0  0  0  0  0  0
   -5.5741    0.9234   15.4984 C   0  0  0  0  0  0
   -4.8294    1.0156   14.3189 C   0  0  0  0  0  0
   -1.0199    5.0965    8.2764 O   0  0  0  0  0  0
   -3.7863    1.2350   11.4318 C   0  0  0  0  0  0
   -6.3251    2.0080   15.9391 C   0  0  0  0  0  0
   -5.5879    3.2836   14.0243 C   0  0  0  0  0  0
   -2.3145    6.1090   10.8378 C   0  0  0  0  0  0
   -6.3311    3.1911   15.2028 C   0  0  0  0  0  0
   -5.5677   -0.5180   16.4075 Cl  0  0  0  0  0  0
   -7.0081    1.8351   17.0714 F   0  0  0  0  0  0
   -1.2327    6.2949   11.8882 C   0  0  0  0  0  0
   -0.2325    7.7791   13.4747 O   0  0  0  0  0  0
   -1.2651    7.6792   12.5064 C   0  0  0  0  0  0
   -0.2057    9.0551   14.0945 C   0  0  0  0  0  0
   -1.5732    2.4164    8.1660 H   0  0  0  0  0  0
  1  2  1  0  0  0
  1  3  1  0  0  0
  1 16  1  0  0  0
  2  4  1  0  0  0
  2 12  2  0  0  0
  3  5  2  0  0  0
  3  6  1  0  0  0
  4  5  1  0  0  0
  4 24  1  0  0  0
  5  7  1  0  0  0
  6  8  2  0  0  0
  7 13  2  0  0  0
  8  9  1  0  0  0
  8 13  1  0  0  0
  9 11  2  0  0  0
  9 15  1  0  0  0
 10 11  1  0  0  0
 10 14  2  0  0  0
 10 18  1  0  0  0
 14 17  1  0  0  0
 14 19  1  0  0  0
 15 17  2  0  0  0
 16 20  1  0  0  0
 20 22  1  0  0  0
 21 22  1  0  0  0
 21 23  1  0  0  0
M  END
>  <$CLUSTER>
28

>  <CHROM.0>
178.37113152,171.86162220,74.92432290

>  <CHROM.1>
-3.49646683,3.41854410,12.80367423,0.10644969,-0.98705224,-2.21475962

>  <INDEX>
15736

>  <Name>
Biofocus 170_4347_0164

>  <RI>
-2.07807e+09

>  <Rbt.Current_Directory>
/aloy/home/acomajuncosa/PocketVec_v2/GitLab_repo

>  <Rbt.Executable>
rbdock ($Id: //depot/dev/client3/rdock/2021.1/src/exe/rbdock.cxx#4 $)

>  <Rbt.Library>
libRbt.so (2021.1, Build901 2021/07/19)

>  <Rbt.Parameter_File>
examples/2_pocketvec/rDock_results/dock.prm

>  <Rbt.Receptor>
examples/2_pocketvec/rDock_results/st_parameters.prm

>  <SCORE>
-11.8294

>  <SCORE.INTER>
-6.38847

>  <SCORE.INTER.CONST>
1

>  <SCORE.INTER.POLAR>
-0.523592

>  <SCORE.INTER.REPUL>
0

>  <SCORE.INTER.ROT>
5

>  <SCORE.INTER.VDW>
-15.0083

>  <SCORE.INTER.norm>
-0.27776

>  <SCORE.INTRA>
-1.61116e-12

>  <SCORE.INTRA.DIHEDRAL>
-2.24221e-12

>  <SCORE.INTRA.DIHEDRAL.0>
3.6751

>  <SCORE.INTRA.POLAR>
0

>  <SCORE.INTRA.POLAR.0>
0

>  <SCORE.INTRA.REPUL>
0

>  <SCORE.INTRA.REPUL.0>
0

>  <SCORE.INTRA.VDW>
-4.90052e-13

>  <SCORE.INTRA.VDW.0>
-1.15529

>  <SCORE.INTRA.norm>
-7.00502e-14

>  <SCORE.RESTR>
0

>  <SCORE.RESTR.CAVITY>
0

>  <SCORE.RESTR.norm>
0

>  <SCORE.SYSTEM>
-5.44098

>  <SCORE.SYSTEM.CONST>
0

>  <SCORE.SYSTEM.DIHEDRAL>
1.43578

>  <SCORE.SYSTEM.POLAR>
-1.75426

>  <SCORE.SYSTEM.VDW>
-0.194388

>  <SCORE.SYSTEM.norm>
-0.236564

>  <SCORE.heavy>
23

>  <SCORE.norm>
-0.514324

$$$$
InterBioScreen STOCK5S-06824
  rDOCK(R)          3D
libRbt.so/2021.1/901 2021/07/19
 25 27  0  0  0  0  0  0  0  0999 V2000
   -3.8060    3.4842   12.4213 N   0  0  0  0  0  0
   -4.4435    2.3524   12.8790 C   0  0  0  0  0  0
   -5.4418    2.6001   13.7441 N   0  0  0  0  0  0
   -4.4546    4.4364   13.0408 C   0  0  0  0  0  0
   -5.4460    3.9916   13.8494 O   0  0  0  0  0  0
   -4.0411    1.0235   12.4400 C   0  0  0  0  0  0
   -4.9356    8.0553   11.8280 C   0  0  0  0  0  0
   -5.7384    8.6280   10.8711 N   0  0  0  0  0  0
   -5.8636    9.9752   10.4747 C   0  0  0  0  0  0
   -4.1518    8.6764   12.5299 O   0  0  0  0  0  0
   -2.9826    0.8644   11.5319 C   0  0  0  0  0  0
   -4.6988   -0.1211   12.9141 C   0  0  0  0  0  0
   -4.2482    5.9029   12.9700 C   0  0  0  0  0  0
   -5.1369    6.5389   11.9139 C   0  0  0  0  0  0
   -5.1218   11.0094   11.0530 C   0  0  0  0  0  0
   -3.2553   -1.5379   11.5873 C   0  0  0  0  0  0
   -2.5946   -0.4090   11.1089 C   0  0  0  0  0  0
   -4.3071   -1.3944   12.4889 C   0  0  0  0  0  0
   -2.7685   -3.0817   11.0630 Cl  0  0  0  0  0  0
   -5.2895   12.3285   10.6158 C   0  0  0  0  0  0
   -6.9421   11.6024    9.0213 C   0  0  0  0  0  0
   -6.7757   10.2852    9.4545 C   0  0  0  0  0  0
   -6.1983   12.6242    9.6035 C   0  0  0  0  0  0
   -4.4886   13.4269   11.2419 C   0  0  0  0  0  0
   -6.3337    7.9816   10.3731 H   0  0  0  0  0  0
  1  2  1  0  0  0
  1  4  2  0  0  0
  2  3  2  0  0  0
  2  6  1  0  0  0
  3  5  1  0  0  0
  4  5  1  0  0  0
  4 13  1  0  0  0
  6 11  2  0  0  0
  6 12  1  0  0  0
  7  8  1  0  0  0
  7 10  2  0  0  0
  7 14  1  0  0  0
  8  9  1  0  0  0
  8 25  1  0  0  0
  9 15  2  0  0  0
  9 22  1  0  0  0
 11 17  1  0  0  0
 12 18  2  0  0  0
 13 14  1  0  0  0
 15 20  1  0  0  0
 16 17  2  0  0  0
 16 18  1  0  0  0
 16 19  1  0  0  0
 20 23  2  0  0  0
 20 24  1  0  0  0
 21 22  2  0  0  0
 21 23  1  0  0  0
M  END
>  <$CLUSTER>
559

>  <CHROM.0>
-2.71568144,171.84435246,75.32757006

>  <CHROM.1>
-4.59543931,4.98182874,11.67883423,0.46074705,-1.37886162,1.93460623

>  <INDEX>
365293

>  <Name>
InterBioScreen STOCK5S-06824

>  <RI>
-2.07807e+09

>  <Rbt.Current_Directory>
/aloy/home/acomajuncosa/PocketVec_v2/GitLab_repo

>  <Rbt.Executable>
rbdock ($Id: //depot/dev/client3/rdock/2021.1/src/exe/rbdock.cxx#4 $)

>  <Rbt.Library>
libRbt.so (2021.1, Build901 2021/07/19)

>  <Rbt.Parameter_File>
examples/2_pocketvec/rDock_results/dock.prm

>  <Rbt.Receptor>
examples/2_pocketvec/rDock_results/st_parameters.prm

>  <SCORE>
-11.1205

>  <SCORE.INTER>
-5.53566

>  <SCORE.INTER.CONST>
1

>  <SCORE.INTER.POLAR>
0

>  <SCORE.INTER.REPUL>
0

>  <SCORE.INTER.ROT>
5

>  <SCORE.INTER.VDW>
-15.9357

>  <SCORE.INTER.norm>
-0.230653

>  <SCORE.INTRA>
-1.08358e-13

>  <SCORE.INTRA.DIHEDRAL>
1.0969e-13

>  <SCORE.INTRA.DIHEDRAL.0>
2.44062

>  <SCORE.INTRA.POLAR>
0

>  <SCORE.INTRA.POLAR.0>
0

>  <SCORE.INTRA.REPUL>
0

>  <SCORE.INTRA.REPUL.0>
0

>  <SCORE.INTRA.VDW>
-1.63203e-13

>  <SCORE.INTRA.VDW.0>
-0.692062

>  <SCORE.INTRA.norm>
-4.51491e-15

>  <SCORE.RESTR>
0

>  <SCORE.RESTR.CAVITY>
0

>  <SCORE.RESTR.norm>
0

>  <SCORE.SYSTEM>
-5.5848

>  <SCORE.SYSTEM.CONST>
0

>  <SCORE.SYSTEM.DIHEDRAL>
1.49962

>  <SCORE.SYSTEM.POLAR>
-1.75752

>  <SCORE.SYSTEM.VDW>
-0.359038

>  <SCORE.SYSTEM.norm>
-0.2327

>  <SCORE.heavy>
24

>  <SCORE.norm>
-0.463353

$$$$
Biofocus 119_0552_0135
  rDOCK(R)          3D
libRbt.so/2021.1/901 2021/07/19
 31 34  0  0  0  0  0  0  0  0999 V2000
    0.7351    4.2192   10.8643 N   0  0  0  0  0  0
   -0.5527    3.9339   11.2636 C   0  0  0  0  0  0
    1.8596    4.6994   11.5186 C   0  0  0  0  0  0
    0.8102    3.9327    9.5254 C   0  0  0  0  0  0
    3.0015    4.8715   10.8129 C   0  0  0  0  0  0
   -0.3176    3.4881    9.0324 N   0  0  0  0  0  0
    3.1082    4.5890    9.4499 N   0  0  0  0  0  0
   -0.9786    4.1088   12.5648 N   0  0  0  0  0  0
   -1.1737    3.4862   10.1105 C   0  0  0  0  0  0
   -2.2733    3.8233   12.9731 C   0  0  0  0  0  0
    2.0500    4.1373    8.8352 C   0  0  0  0  0  0
    4.2425    5.3903   11.4798 C   0  0  0  0  0  0
    4.2140    6.6250   12.1222 C   0  0  0  0  0  0
    5.3673    7.0977   12.7522 C   0  0  0  0  0  0
    5.3521    8.3737   13.4101 N   0  0  0  0  0  0
   -3.1968    3.3955   12.2869 O   0  0  0  0  0  0
   -2.4604    4.1051   14.4419 C   0  0  0  0  0  0
   -3.8629    3.8134   14.9520 C   0  0  0  0  0  0
   -4.1905    2.5341   15.4056 C   0  0  0  0  0  0
   -5.4896    2.2546   15.8311 C   0  0  0  0  0  0
   -5.9260    1.0375   16.3140 O   0  0  0  0  0  0
    5.3965    4.6216   11.4676 C   0  0  0  0  0  0
    6.5338    6.3341   12.7411 C   0  0  0  0  0  0
    6.5488    5.0975   12.0992 C   0  0  0  0  0  0
   -6.1481    4.5172   15.3142 C   0  0  0  0  0  0
    6.5024    8.9621   14.0978 C   0  0  0  0  0  0
    4.1273    9.1754   13.4209 C   0  0  0  0  0  0
   -4.8492    4.7986   14.8878 C   0  0  0  0  0  0
   -6.4669    3.2462   15.7862 C   0  0  0  0  0  0
   -4.9670   -0.0111   16.3845 C   0  0  0  0  0  0
   -0.3214    4.4592   13.2470 H   0  0  0  0  0  0
  1  2  1  0  0  0
  1  3  1  0  0  0
  1  4  1  0  0  0
  2  8  1  0  0  0
  2  9  2  0  0  0
  3  5  2  0  0  0
  4  6  2  0  0  0
  4 11  1  0  0  0
  5  7  1  0  0  0
  5 12  1  0  0  0
  6  9  1  0  0  0
  7 11  2  0  0  0
  8 10  1  0  0  0
  8 31  1  0  0  0
 10 16  2  0  0  0
 10 17  1  0  0  0
 12 13  2  0  0  0
 12 22  1  0  0  0
 13 14  1  0  0  0
 14 15  1  0  0  0
 14 23  2  0  0  0
 15 26  1  0  0  0
 15 27  1  0  0  0
 17 18  1  0  0  0
 18 19  2  0  0  0
 18 28  1  0  0  0
 19 20  1  0  0  0
 20 21  1  0  0  0
 20 29  2  0  0  0
 21 30  1  0  0  0
 22 24  2  0  0  0
 23 24  1  0  0  0
 25 28  2  0  0  0
 25 29  1  0  0  0
M  END
>  <$CLUSTER>
22

>  <CHROM.0>
176.50328000,171.92758611,73.80681643

>  <CHROM.1>
0.19690264,4.54981622,12.78074173,0.10381832,-0.45276652,-2.01240187

>  <INDEX>
10269

>  <Name>
Biofocus 119_0552_0135

>  <RI>
-2.07807e+09

>  <Rbt.Current_Directory>
/aloy/home/acomajuncosa/PocketVec_v2/GitLab_repo

>  <Rbt.Executable>
rbdock ($Id: //depot/dev/client3/rdock/2021.1/src/exe/rbdock.cxx#4 $)

>  <Rbt.Library>
libRbt.so (2021.1, Build901 2021/07/19)

>  <Rbt.Parameter_File>
examples/2_pocketvec/rDock_results/dock.prm

>  <Rbt.Receptor>
examples/2_pocketvec/rDock_results/st_parameters.prm

>  <SCORE>
-12.9028

>  <SCORE.INTER>
-7.44445

>  <SCORE.INTER.CONST>
1

>  <SCORE.INTER.POLAR>
-0.361941

>  <SCORE.INTER.REPUL>
0.0540572

>  <SCORE.INTER.ROT>
6

>  <SCORE.INTER.VDW>
-17.8841

>  <SCORE.INTER.norm>
-0.248148

>  <SCORE.INTRA>
-2.11697e-12

>  <SCORE.INTRA.DIHEDRAL>
4.80505e-13

>  <SCORE.INTRA.DIHEDRAL.0>
5.6236

>  <SCORE.INTRA.POLAR>
0

>  <SCORE.INTRA.POLAR.0>
0

>  <SCORE.INTRA.REPUL>
0

>  <SCORE.INTRA.REPUL.0>
0

>  <SCORE.INTRA.VDW>
-2.35723e-12

>  <SCORE.INTRA.VDW.0>
3.0899

>  <SCORE.INTRA.norm>
-7.05658e-14

>  <SCORE.RESTR>
0

>  <SCORE.RESTR.CAVITY>
0

>  <SCORE.RESTR.norm>
0

>  <SCORE.SYSTEM>
-5.45838

>  <SCORE.SYSTEM.CONST>
0

>  <SCORE.SYSTEM.DIHEDRAL>
1.30502

>  <SCORE.SYSTEM.POLAR>
-1.74513

>  <SCORE.SYSTEM.VDW>
-0.177462

>  <SCORE.SYSTEM.norm>
-0.181946

>  <SCORE.heavy>
30

>  <SCORE.norm>
-0.430095

$$$$
Cerep CER0099275
  rDOCK(R)          3D
libRbt.so/2021.1/901 2021/07/19
 30 33  0  0  0  0  0  0  0  0999 V2000
   -0.1468    8.1459   10.7625 C   0  0  0  0  0  0
   -0.0827    9.6439   10.8290 C   0  0  0  0  0  0
   -0.3314    3.8613   10.6532 C   0  0  0  0  0  0
   -1.0182    3.2153   11.6578 N   0  0  0  0  0  0
   -0.3190    7.4164   11.9381 C   0  0  0  0  0  0
   -0.2770    5.3397   10.7222 C   0  0  0  0  0  0
   -0.3847    6.0267   11.9300 C   0  0  0  0  0  0
   -3.2874    1.9164   12.9796 N   0  3  0  0  0  0
   -0.0396    7.4430    9.5501 C   0  0  0  0  0  0
   -5.6007    1.1853   16.8290 C   0  0  0  0  0  0
   -6.2321    2.4061   17.0558 C   0  0  0  0  0  0
   -5.5443    0.4251   17.9316 O   0  0  0  0  0  0
   -6.6310    2.5459   18.3265 O   0  0  0  0  0  0
   -0.1049    6.0476    9.5334 C   0  0  0  0  0  0
   -6.1991    1.2870   18.8918 C   0  0  0  0  0  0
    0.2064    3.2680    9.7225 O   0  0  0  0  0  0
   -5.1132    0.8753   15.5585 C   0  0  0  0  0  0
   -1.1259    1.7507   11.6681 C   0  0  0  0  0  0
   -1.6866    3.8736   12.7939 C   0  0  0  0  0  0
   -5.2693    1.7825   14.5065 C   0  0  0  0  0  0
   -4.7060    1.4616   13.1307 C   0  0  0  0  0  0
   -1.2148   10.2042   11.3498 F   0  0  0  0  0  0
    0.9468   10.1009   11.6011 F   0  0  0  0  0  0
    0.0879   10.2394    9.6108 F   0  0  0  0  0  0
   -6.3723    3.3209   16.0151 C   0  0  0  0  0  0
   -2.6019    1.2768   11.7856 C   0  0  0  0  0  0
   -3.1707    3.4297   12.9271 C   0  0  0  0  0  0
   -0.4251    8.0585   13.1107 F   0  0  0  0  0  0
   -5.8852    3.0148   14.7432 C   0  0  0  0  0  0
   -2.8043    1.6036   13.8097 H   0  0  0  0  0  0
  1  2  1  0  0  0
  1  5  1  0  0  0
  1  9  2  0  0  0
  2 22  1  0  0  0
  2 23  1  0  0  0
  2 24  1  0  0  0
  3  4  1  0  0  0
  3  6  1  0  0  0
  3 16  2  0  0  0
  4 18  1  0  0  0
  4 19  1  0  0  0
  5  7  2  0  0  0
  5 28  1  0  0  0
  6  7  1  0  0  0
  6 14  2  0  0  0
  8 21  1  0  0  0
  8 26  1  0  0  0
  8 27  1  0  0  0
  8 30  1  0  0  0
  9 14  1  0  0  0
 10 11  1  0  0  0
 10 12  1  0  0  0
 10 17  2  0  0  0
 11 13  1  0  0  0
 11 25  2  0  0  0
 12 15  1  0  0  0
 13 15  1  0  0  0
 17 20  1  0  0  0
 18 26  1  0  0  0
 19 27  1  0  0  0
 20 21  1  0  0  0
 20 29  2  0  0  0
 25 29  1  0  0  0
M  END
>  <$CLUSTER>
583

>  <CHROM.0>
177.29842088,-174.25507801,73.38036527

>  <CHROM.1>
-2.41109339,4.65739493,13.00215144,0.51325632,0.90910944,0.24786339

>  <INDEX>
187005

>  <Name>
Cerep CER0099275

>  <RI>
-2.07807e+09

>  <Rbt.Current_Directory>
/aloy/home/acomajuncosa/PocketVec_v2/GitLab_repo

>  <Rbt.Executable>
rbdock ($Id: //depot/dev/client3/rdock/2021.1/src/exe/rbdock.cxx#4 $)

>  <Rbt.Library>
libRbt.so (2021.1, Build901 2021/07/19)

>  <Rbt.Parameter_File>
examples/2_pocketvec/rDock_results/dock.prm

>  <Rbt.Receptor>
examples/2_pocketvec/rDock_results/st_parameters.prm

>  <SCORE>
-18.8724

>  <SCORE.INTER>
-14.1046

>  <SCORE.INTER.CONST>
1

>  <SCORE.INTER.POLAR>
-2.09401

>  <SCORE.INTER.REPUL>
0.0627939

>  <SCORE.INTER.ROT>
4

>  <SCORE.INTER.VDW>
-16.6989

>  <SCORE.INTER.norm>
-0.486365

>  <SCORE.INTRA>
-3.25606e-12

>  <SCORE.INTRA.DIHEDRAL>
-6.56364e-13

>  <SCORE.INTRA.DIHEDRAL.0>
4.29089

>  <SCORE.INTRA.POLAR>
0

>  <SCORE.INTRA.POLAR.0>
0

>  <SCORE.INTRA.REPUL>
0

>  <SCORE.INTRA.REPUL.0>
0

>  <SCORE.INTRA.VDW>
-2.92788e-12

>  <SCORE.INTRA.VDW.0>
2.05709

>  <SCORE.INTRA.norm>
-1.12278e-13

>  <SCORE.RESTR>
0

>  <SCORE.RESTR.CAVITY>
0

>  <SCORE.RESTR.norm>
0

>  <SCORE.SYSTEM>
-4.76777

>  <SCORE.SYSTEM.CONST>
0

>  <SCORE.SYSTEM.DIHEDRAL>
1.09124

>  <SCORE.SYSTEM.POLAR>
-1.74161

>  <SCORE.SYSTEM.VDW>
0.608083

>  <SCORE.SYSTEM.norm>
-0.164406

>  <SCORE.heavy>
29

>  <SCORE.norm>
-0.650771

$$$$
Chemical Block A3816/0161993
  rDOCK(R)          3D
libRbt.so/2021.1/901 2021/07/19
 26 29  0  0  0  0  0  0  0  0999 V2000
   -3.6090    3.4420   12.9146 C   0  0  0  0  0  0
   -4.8137    2.7964   12.7120 C   0  0  0  0  0  0
   -2.6394    2.7303   12.2577 N   0  0  0  0  0  0
   -3.4618    4.5689   13.6345 N   0  0  0  0  0  0
   -4.5824    1.6574   11.9051 C   0  0  0  0  0  0
   -5.9323    3.3164   13.2697 N   0  0  0  0  0  0
   -3.2071    1.6346   11.6270 C   0  0  0  0  0  0
   -4.6520    4.9757   14.1304 C   0  0  0  0  0  0
   -5.8734    4.4033   13.9827 N   0  0  0  0  0  0
   -1.2289    3.0811   12.2343 C   0  0  0  0  0  0
   -4.6373    6.4944   15.1394 S   0  0  0  0  0  0
   -0.8720    3.9509   11.0429 C   0  0  0  0  0  0
   -0.2988    5.1396   11.1203 C   0  0  0  0  0  0
   -5.4061    0.6421   11.3797 C   0  0  0  0  0  0
   -2.6344    0.6263   10.8340 C   0  0  0  0  0  0
   -2.7127    9.2274   12.2035 C   0  0  0  0  0  0
   -3.0049    8.6725   13.3784 O   0  0  0  0  0  0
   -2.8742    6.9160   15.0851 C   0  0  0  0  0  0
   -2.4353    7.3995   13.7087 C   0  0  0  0  0  0
   -3.3162   10.4690   11.9743 C   0  0  0  0  0  0
   -1.8796    8.6816   11.2227 C   0  0  0  0  0  0
   -4.8384   -0.3643   10.5929 C   0  0  0  0  0  0
   -3.4727   -0.3697   10.3240 C   0  0  0  0  0  0
   -1.6572    9.3738   10.0284 C   0  0  0  0  0  0
   -3.0928   11.1584   10.7823 C   0  0  0  0  0  0
   -2.2612   10.6103    9.8076 C   0  0  0  0  0  0
  1  2  2  0  0  0
  1  3  1  0  0  0
  1  4  1  0  0  0
  2  5  1  0  0  0
  2  6  1  0  0  0
  3  7  1  0  0  0
  3 10  1  0  0  0
  4  8  2  0  0  0
  5  7  2  0  0  0
  5 14  1  0  0  0
  6  9  2  0  0  0
  7 15  1  0  0  0
  8  9  1  0  0  0
  8 11  1  0  0  0
 10 12  1  0  0  0
 11 18  1  0  0  0
 12 13  2  0  0  0
 14 22  2  0  0  0
 15 23  2  0  0  0
 16 17  1  0  0  0
 16 20  1  0  0  0
 16 21  2  0  0  0
 17 19  1  0  0  0
 18 19  1  0  0  0
 20 25  2  0  0  0
 21 24  1  0  0  0
 22 23  1  0  0  0
 24 26  2  0  0  0
 25 26  1  0  0  0
M  END
>  <$CLUSTER>
243

>  <CHROM.0>
-0.51177514,172.17734640,73.01418354

>  <CHROM.1>
-3.33787543,5.16393586,12.38220110,1.82123826,-0.89801951,-2.90399659

>  <INDEX>
120541

>  <Name>
Chemical Block A3816/0161993

>  <RI>
-2.07807e+09

>  <Rbt.Current_Directory>
/aloy/home/acomajuncosa/PocketVec_v2/GitLab_repo

>  <Rbt.Executable>
rbdock ($Id: //depot/dev/client3/rdock/2021.1/src/exe/rbdock.cxx#4 $)

>  <Rbt.Library>
libRbt.so (2021.1, Build901 2021/07/19)

>  <Rbt.Parameter_File>
examples/2_pocketvec/rDock_results/dock.prm

>  <Rbt.Receptor>
examples/2_pocketvec/rDock_results/st_parameters.prm

>  <SCORE>
-9.22101

>  <SCORE.INTER>
-3.61864

>  <SCORE.INTER.CONST>
1

>  <SCORE.INTER.POLAR>
-0.193463

>  <SCORE.INTER.REPUL>
0

>  <SCORE.INTER.ROT>
7

>  <SCORE.INTER.VDW>
-15.3609

>  <SCORE.INTER.norm>
-0.139178

>  <SCORE.INTRA>
2.54952e-12

>  <SCORE.INTRA.DIHEDRAL>
7.71827e-13

>  <SCORE.INTRA.DIHEDRAL.0>
4.85724

>  <SCORE.INTRA.POLAR>
0

>  <SCORE.INTRA.POLAR.0>
0

>  <SCORE.INTRA.REPUL>
0

>  <SCORE.INTRA.REPUL.0>
0

>  <SCORE.INTRA.VDW>
2.1636e-12

>  <SCORE.INTRA.VDW.0>
-0.767951

>  <SCORE.INTRA.norm>
9.80583e-14

>  <SCORE.RESTR>
0

>  <SCORE.RESTR.CAVITY>
0

>  <SCORE.RESTR.norm>
0

>  <SCORE.SYSTEM>
-5.60237

>  <SCORE.SYSTEM.CONST>
0

>  <SCORE.SYSTEM.DIHEDRAL>
1.16776

>  <SCORE.SYSTEM.POLAR>
-1.73858

>  <SCORE.SYSTEM.VDW>
-0.275081

>  <SCORE.SYSTEM.norm>
-0.215476

>  <SCORE.heavy>
26

>  <SCORE.norm>
-0.354654

$$$$
Biofocus 170_0148_0349
  rDOCK(R)          3D
libRbt.so/2021.1/901 2021/07/19
 30 33  0  0  0  0  0  0  0  0999 V2000
   -4.3070    3.9596   13.2714 N   0  0  0  0  0  0
   -5.2476    2.8922   13.2895 C   0  0  0  0  0  0
   -3.1071    3.4907   12.7027 C   0  0  0  0  0  0
   -4.5792    1.7798   12.7169 N   0  0  0  0  0  0
   -3.2835    2.1591   12.3663 C   0  0  0  0  0  0
   -1.9602    4.1463   12.4884 N   0  0  0  0  0  0
    3.2193    4.0386    9.2338 C   0  0  0  0  0  0
   -2.3360    1.4031   11.8016 N   0  0  0  0  0  0
   -4.5399    5.3109   13.7590 C   0  0  0  0  0  0
   -0.9907    3.3954   11.9169 C   0  0  0  0  0  0
    2.3751    4.4640   10.3802 C   0  0  0  0  0  0
    1.1704    3.7849   10.5882 C   0  0  0  0  0  0
   -6.3972    2.9111   13.7058 O   0  0  0  0  0  0
    0.3202    4.1192   11.6627 C   0  0  0  0  0  0
    4.0667    4.9882    8.7070 N   0  0  0  0  0  0
   -1.1737    2.0586   11.5825 C   0  0  0  0  0  0
    3.1363    2.8963    8.7932 O   0  0  0  0  0  0
   -4.4496    6.3504   12.6431 C   0  0  0  0  0  0
    2.7556    5.4923   11.2365 C   0  0  0  0  0  0
   -3.6304    5.6651   14.9344 C   0  0  0  0  0  0
    0.7280    5.1715   12.5085 C   0  0  0  0  0  0
    1.9306    5.8477   12.3010 C   0  0  0  0  0  0
    4.2073    6.3725    9.1875 C   0  0  0  0  0  0
    4.9378    4.6607    7.5698 C   0  0  0  0  0  0
   -3.3140    6.3910   11.8062 C   0  0  0  0  0  0
   -5.4532    7.3062   12.4552 C   0  0  0  0  0  0
   -5.3407    8.2736   11.4519 C   0  0  0  0  0  0
   -3.2024    7.3580   10.8047 C   0  0  0  0  0  0
   -4.2158    8.2999   10.6288 C   0  0  0  0  0  0
   -4.9774    0.8613   12.5841 H   0  0  0  0  0  0
  1  2  1  0  0  0
  1  3  1  0  0  0
  1  9  1  0  0  0
  2  4  1  0  0  0
  2 13  2  0  0  0
  3  5  2  0  0  0
  3  6  1  0  0  0
  4  5  1  0  0  0
  4 30  1  0  0  0
  5  8  1  0  0  0
  6 10  2  0  0  0
  7 11  1  0  0  0
  7 15  1  0  0  0
  7 17  2  0  0  0
  8 16  2  0  0  0
  9 18  1  0  0  0
  9 20  1  0  0  0
 10 14  1  0  0  0
 10 16  1  0  0  0
 11 12  1  0  0  0
 11 19  2  0  0  0
 12 14  2  0  0  0
 14 21  1  0  0  0
 15 23  1  0  0  0
 15 24  1  0  0  0
 18 25  1  0  0  0
 18 26  2  0  0  0
 19 22  1  0  0  0
 21 22  2  0  0  0
 25 28  2  0  0  0
 26 27  1  0  0  0
 27 29  2  0  0  0
 28 29  1  0  0  0
M  END
>  <$CLUSTER>
27

>  <CHROM.0>
171.57087198,171.54413720,74.59211611

>  <CHROM.1>
-1.30330931,4.63076121,11.58302994,-3.08596062,0.40050923,-0.17475426

>  <INDEX>
15645

>  <Name>
Biofocus 170_0148_0349

>  <RI>
-2.07807e+09

>  <Rbt.Current_Directory>
/aloy/home/acomajuncosa/PocketVec_v2/GitLab_repo

>  <Rbt.Executable>
rbdock ($Id: //depot/dev/client3/rdock/2021.1/src/exe/rbdock.cxx#4 $)

>  <Rbt.Library>
libRbt.so (2021.1, Build901 2021/07/19)

>  <Rbt.Parameter_File>
examples/2_pocketvec/rDock_results/dock.prm

>  <Rbt.Receptor>
examples/2_pocketvec/rDock_results/st_parameters.prm

>  <SCORE>
-13.4543

>  <SCORE.INTER>
-8.00614

>  <SCORE.INTER.CONST>
1

>  <SCORE.INTER.POLAR>
-0.872929

>  <SCORE.INTER.REPUL>
0

>  <SCORE.INTER.ROT>
4

>  <SCORE.INTER.VDW>
-14.4382

>  <SCORE.INTER.norm>
-0.276074

>  <SCORE.INTRA>
1.5854e-13

>  <SCORE.INTRA.DIHEDRAL>
1.21414e-12

>  <SCORE.INTRA.DIHEDRAL.0>
6.77079

>  <SCORE.INTRA.POLAR>
0

>  <SCORE.INTRA.POLAR.0>
0

>  <SCORE.INTRA.REPUL>
0

>  <SCORE.INTRA.REPUL.0>
0

>  <SCORE.INTRA.VDW>
-4.4853e-13

>  <SCORE.INTRA.VDW.0>
4.21568

>  <SCORE.INTRA.norm>
5.46689e-15

>  <SCORE.RESTR>
0

>  <SCORE.RESTR.CAVITY>
0

>  <SCORE.RESTR.norm>
0

>  <SCORE.SYSTEM>
-5.44818

>  <SCORE.SYSTEM.CONST>
0

>  <SCORE.SYSTEM.DIHEDRAL>
1.52807

>  <SCORE.SYSTEM.POLAR>
-1.75156

>  <SCORE.SYSTEM.VDW>
-0.256926

>  <SCORE.SYSTEM.norm>
-0.187868

>  <SCORE.heavy>
29

>  <SCORE.norm>
-0.463942

$$$$
Life Chemicals F0631-0161
  rDOCK(R)          3D
libRbt.so/2021.1/901 2021/07/19
 28 31  0  0  0  0  0  0  0  0999 V2000
    1.5907    5.9187   12.0106 N   0  0  0  0  0  0
    2.1995    4.7870   11.5459 C   0  0  0  0  0  0
   -0.0116    5.2106   10.5827 C   0  0  0  0  0  0
    0.3408    6.1626   11.4704 C   0  0  0  0  0  0
    1.2193    3.9544   10.3847 S   0  0  0  0  0  0
    3.3711    4.5968   12.0800 N   0  0  0  0  0  0
    2.3976    6.5200   12.9068 N   0  0  0  0  0  0
    3.4495    5.6874   12.9102 C   0  0  0  0  0  0
   -1.3318    5.2116    9.8028 C   0  0  0  0  0  0
   -1.1317    5.1412    8.3219 N   0  3  0  0  0  0
   -2.2581    4.0660   10.2068 C   0  0  0  0  0  0
   -0.4155    7.2485   11.8175 O   0  0  0  0  0  0
   -4.0371    1.9825   10.9401 C   0  0  0  0  0  0
   -3.6315    4.3198   10.4864 C   0  0  0  0  0  0
   -1.8275    2.7278   10.3091 C   0  0  0  0  0  0
   -2.7008    1.7011   10.6698 C   0  0  0  0  0  0
   -4.5021    3.2915   10.8467 C   0  0  0  0  0  0
   -1.4964    4.3516    5.5488 O   0  0  0  0  0  0
   -5.0148    0.8721   11.3379 C   0  0  0  0  0  0
   -0.5447    3.8773    7.7435 C   0  0  0  0  0  0
   -2.2682    5.6493    7.4850 C   0  0  0  0  0  0
    4.6131    5.9283   13.7472 C   0  0  0  0  0  0
   -0.3098    3.9490    6.2649 C   0  0  0  0  0  0
   -1.9603    5.6450    5.9941 C   0  0  0  0  0  0
   -4.6033    0.2036   12.6530 C   0  0  0  0  0  0
   -5.1708   -0.1675   10.2244 C   0  0  0  0  0  0
   -0.3823    5.8146    8.2495 H   0  0  0  0  0  0
   -1.2647    7.3098   11.3737 H   0  0  0  0  0  0
  1  2  1  0  0  0
  1  4  1  0  0  0
  1  7  1  0  0  0
  2  5  1  0  0  0
  2  6  2  0  0  0
  3  4  2  0  0  0
  3  5  1  0  0  0
  3  9  1  0  0  0
  4 12  1  0  0  0
  6  8  1  0  0  0
  7  8  2  0  0  0
  8 22  1  0  0  0
  9 10  1  0  0  0
  9 11  1  0  0  0
 10 20  1  0  0  0
 10 21  1  0  0  0
 10 27  1  0  0  0
 11 14  1  0  0  0
 11 15  2  0  0  0
 12 28  1  0  0  0
 13 16  2  0  0  0
 13 17  1  0  0  0
 13 19  1  0  0  0
 14 17  2  0  0  0
 15 16  1  0  0  0
 18 23  1  0  0  0
 18 24  1  0  0  0
 19 25  1  0  0  0
 19 26  1  0  0  0
 20 23  1  0  0  0
 21 24  1  0  0  0
M  END
>  <$CLUSTER>
924

>  <CHROM.0>
3.55420742,172.07852337,73.96252112

>  <CHROM.1>
-0.81956903,4.19048511,10.28196977,0.11745372,0.57691666,1.91556743

>  <INDEX>
279190

>  <Name>
Life Chemicals F0631-0161

>  <RI>
-2.07807e+09

>  <Rbt.Current_Directory>
/aloy/home/acomajuncosa/PocketVec_v2/GitLab_repo

>  <Rbt.Executable>
rbdock ($Id: //depot/dev/client3/rdock/2021.1/src/exe/rbdock.cxx#4 $)

>  <Rbt.Library>
libRbt.so (2021.1, Build901 2021/07/19)

>  <Rbt.Parameter_File>
examples/2_pocketvec/rDock_results/dock.prm

>  <Rbt.Receptor>
examples/2_pocketvec/rDock_results/st_parameters.prm

>  <SCORE>
-14.9748

>  <SCORE.INTER>
-9.3661

>  <SCORE.INTER.CONST>
1

>  <SCORE.INTER.POLAR>
-0.674439

>  <SCORE.INTER.REPUL>
0

>  <SCORE.INTER.ROT>
4

>  <SCORE.INTER.VDW>
-16.473

>  <SCORE.INTER.norm>
-0.360234

>  <SCORE.INTRA>
-1.17573e-12

>  <SCORE.INTRA.DIHEDRAL>
1.48326e-13

>  <SCORE.INTRA.DIHEDRAL.0>
2.55816

>  <SCORE.INTRA.POLAR>
0

>  <SCORE.INTRA.POLAR.0>
0

>  <SCORE.INTRA.REPUL>
0

>  <SCORE.INTRA.REPUL.0>
0

>  <SCORE.INTRA.VDW>
-1.24989e-12

>  <SCORE.INTRA.VDW.0>
-1.73196

>  <SCORE.INTRA.norm>
-4.52202e-14

>  <SCORE.RESTR>
0

>  <SCORE.RESTR.CAVITY>
0

>  <SCORE.RESTR.norm>
0

>  <SCORE.SYSTEM>
-5.60868

>  <SCORE.SYSTEM.CONST>
0

>  <SCORE.SYSTEM.DIHEDRAL>
1.30131

>  <SCORE.SYSTEM.POLAR>
-1.74641

>  <SCORE.SYSTEM.VDW>
-0.321558

>  <SCORE.SYSTEM.norm>
-0.215718

>  <SCORE.heavy>
26

>  <SCORE.norm>
-0.575953

$$$$
Chembridge 9001855
  rDOCK(R)          3D
libRbt.so/2021.1/901 2021/07/19
 33 36  0  0  0  0  0  0  0  0999 V2000
   -3.8395    4.7071   11.6271 C   0  0  0  0  0  0
   -2.9256    4.0586   10.6605 C   0  0  0  0  0  0
   -5.0951    6.9040    7.4668 C   0  0  0  0  0  0
   -4.0018    5.8654    7.5319 C   0  0  0  0  0  0
   -4.4707    3.8626   12.5126 N   0  0  0  0  0  0
   -3.8410    5.3909    8.8276 N   0  0  0  0  0  0
   -2.9196    4.4170    9.2948 C   0  0  0  0  0  0
   -4.9114    2.4541   15.0631 N   0  0  0  0  0  0
   -4.8922    8.0715    6.6830 C   0  0  0  0  0  0
   -6.3130    6.6763    8.0892 C   0  0  0  0  0  0
   -4.0100    5.9215   11.6012 O   0  0  0  0  0  0
   -3.3863    5.5416    6.5219 O   0  0  0  0  0  0
   -5.4049    4.4140   13.5152 C   0  0  0  0  0  0
   -4.3122    2.4068   12.5900 C   0  0  0  0  0  0
   -3.9696    1.9597   14.0405 C   0  0  0  0  0  0
   -5.0344    3.9195   14.9415 C   0  0  0  0  0  0
   -5.5482    1.7009   15.9484 C   0  0  0  0  0  0
   -5.9364    9.0001    6.5916 C   0  0  0  0  0  0
   -7.3396    7.6100    7.9874 C   0  0  0  0  0  0
   -2.0315    3.0941   11.1504 C   0  0  0  0  0  0
   -7.1518    8.7704    7.2412 C   0  0  0  0  0  0
   -8.8188    7.3220    8.7808 Cl  0  0  0  0  0  0
   -3.6631    8.2296    6.0970 O   0  0  0  0  0  0
   -2.0057    3.7753    8.4473 C   0  0  0  0  0  0
   -5.3780    0.3032   16.0010 C   0  0  0  0  0  0
   -6.4354    2.2501   16.8971 C   0  0  0  0  0  0
   -3.4602    9.3889    5.2975 C   0  0  0  0  0  0
   -1.1342    2.4693   10.2890 C   0  0  0  0  0  0
   -1.1221    2.8087    8.9406 C   0  0  0  0  0  0
   -7.1101    1.4575   17.8352 C   0  0  0  0  0  0
   -6.0497   -0.4956   16.9366 C   0  0  0  0  0  0
   -6.9161    0.0826   17.8536 C   0  0  0  0  0  0
   -4.4556    5.7881    9.5234 H   0  0  0  0  0  0
  1  2  1  0  0  0
  1  5  1  0  0  0
  1 11  2  0  0  0
  2  7  2  0  0  0
  2 20  1  0  0  0
  3  4  1  0  0  0
  3  9  2  0  0  0
  3 10  1  0  0  0
  4  6  1  0  0  0
  4 12  2  0  0  0
  5 13  1  0  0  0
  5 14  1  0  0  0
  6  7  1  0  0  0
  6 33  1  0  0  0
  7 24  1  0  0  0
  8 15  1  0  0  0
  8 16  1  0  0  0
  8 17  1  0  0  0
  9 18  1  0  0  0
  9 23  1  0  0  0
 10 19  2  0  0  0
 13 16  1  0  0  0
 14 15  1  0  0  0
 17 25  1  0  0  0
 17 26  2  0  0  0
 18 21  2  0  0  0
 19 21  1  0  0  0
 19 22  1  0  0  0
 20 28  2  0  0  0
 23 27  1  0  0  0
 24 29  2  0  0  0
 25 31  2  0  0  0
 26 30  1  0  0  0
 28 29  1  0  0  0
 30 32  2  0  0  0
 31 32  1  0  0  0
M  END
>  <$CLUSTER>
162

>  <CHROM.0>
2.36687212,172.34189965,73.83523108

>  <CHROM.1>
-4.85121494,4.68404341,10.89533390,-1.61628254,0.44555146,-0.95306501

>  <INDEX>
107851

>  <Name>
Chembridge 9001855

>  <RI>
-2.07807e+09

>  <Rbt.Current_Directory>
/aloy/home/acomajuncosa/PocketVec_v2/GitLab_repo

>  <Rbt.Executable>
rbdock ($Id: //depot/dev/client3/rdock/2021.1/src/exe/rbdock.cxx#4 $)

>  <Rbt.Library>
libRbt.so (2021.1, Build901 2021/07/19)

>  <Rbt.Parameter_File>
examples/2_pocketvec/rDock_results/dock.prm

>  <Rbt.Receptor>
examples/2_pocketvec/rDock_results/st_parameters.prm

>  <SCORE>
-19.7161

>  <SCORE.INTER>
-14.1069

>  <SCORE.INTER.CONST>
1

>  <SCORE.INTER.POLAR>
0

>  <SCORE.INTER.REPUL>
0

>  <SCORE.INTER.ROT>
5

>  <SCORE.INTER.VDW>
-24.5069

>  <SCORE.INTER.norm>
-0.440842

>  <SCORE.INTRA>
3.73923e-13

>  <SCORE.INTRA.DIHEDRAL>
1.2772e-12

>  <SCORE.INTRA.DIHEDRAL.0>
12.5529

>  <SCORE.INTRA.POLAR>
0

>  <SCORE.INTRA.POLAR.0>
0

>  <SCORE.INTRA.REPUL>
0

>  <SCORE.INTRA.REPUL.0>
0

>  <SCORE.INTRA.VDW>
-2.64677e-13

>  <SCORE.INTRA.VDW.0>
3.51309

>  <SCORE.INTRA.norm>
1.16851e-14

>  <SCORE.RESTR>
0

>  <SCORE.RESTR.CAVITY>
0

>  <SCORE.RESTR.norm>
0

>  <SCORE.SYSTEM>
-5.60914

>  <SCORE.SYSTEM.CONST>
0

>  <SCORE.SYSTEM.DIHEDRAL>
1.25784

>  <SCORE.SYSTEM.POLAR>
-1.74536

>  <SCORE.SYSTEM.VDW>
-0.303839

>  <SCORE.SYSTEM.norm>
-0.175286

>  <SCORE.heavy>
32

>  <SCORE.norm>
-0.616128

$$$$
Maybridge HTS 07015
  rDOCK(R)          3D
libRbt.so/2021.1/901 2021/07/19
 26 28  0  0  0  0  0  0  0  0999 V2000
   -6.4114    2.9309   17.1792 C   0  0  0  0  0  0
   -7.0071    2.9576   19.5508 C   0  0  0  0  0  0
   -6.9164    4.2265   17.0422 O   0  0  0  0  0  0
   -7.4665    4.9055   18.1324 C   0  0  0  0  0  0
   -6.4367    2.2655   18.4028 C   0  0  0  0  0  0
   -7.4877    4.1920   19.4207 C   0  0  0  0  0  0
   -4.6547    0.7476   13.7306 C   0  0  0  0  0  0
   -5.8745    2.3110   16.0458 C   0  0  0  0  0  0
   -4.7945    0.3089   15.0410 N   0  0  0  0  0  0
   -3.8205    0.1081   11.4180 C   0  0  0  0  0  0
   -5.9230    0.9748   18.4966 C   0  0  0  0  0  0
   -2.5720    1.8604    9.8953 C   0  0  0  0  0  0
   -5.3569    1.0151   16.1303 C   0  0  0  0  0  0
   -7.9126    6.0417   18.0279 O   0  0  0  0  0  0
   -4.0034   -0.3065   12.8693 C   0  0  0  0  0  0
   -4.9874    1.8285   13.2564 O   0  0  0  0  0  0
   -2.8993    1.3323   11.2571 C   0  0  0  0  0  0
   -1.5291    1.3778    9.3717 O   0  0  0  0  0  0
   -5.3864    0.3540   17.3673 C   0  0  0  0  0  0
   -3.3780    2.7212    9.4427 O   0  5  0  0  0  0
   -7.0246    2.2251   20.8575 C   0  0  0  0  0  0
   -5.1565    0.3892   10.7035 C   0  0  0  0  0  0
   -3.1375   -1.0818   10.6557 C   0  0  0  0  0  0
   -3.5963   -0.8069    9.1648 C   0  0  0  0  0  0
   -4.8297    0.0893    9.2139 C   0  0  0  0  0  0
   -4.4559   -0.6219   15.2391 H   0  0  0  0  0  0
  1  3  1  0  0  0
  1  5  2  0  0  0
  1  8  1  0  0  0
  2  5  1  0  0  0
  2  6  2  0  0  0
  2 21  1  0  0  0
  3  4  1  0  0  0
  4  6  1  0  0  0
  4 14  2  0  0  0
  5 11  1  0  0  0
  7  9  1  0  0  0
  7 15  1  0  0  0
  7 16  2  0  0  0
  8 13  2  0  0  0
  9 13  1  0  0  0
  9 26  1  0  0  0
 10 15  1  0  0  0
 10 17  1  0  0  0
 10 22  1  0  0  0
 10 23  1  0  0  0
 11 19  2  0  0  0
 12 17  1  0  0  0
 12 18  2  0  0  0
 12 20  1  0  0  0
 13 19  1  0  0  0
 22 25  1  0  0  0
 23 24  1  0  0  0
 24 25  1  0  0  0
M  END
>  <$CLUSTER>
899

>  <CHROM.0>
178.16472418,172.47635918,73.86226163

>  <CHROM.1>
-5.11304715,1.73647463,14.40815180,2.77785299,-1.16297416,2.44015622

>  <INDEX>
551863

>  <Name>
Maybridge HTS 07015

>  <RI>
-2.07807e+09

>  <Rbt.Current_Directory>
/aloy/home/acomajuncosa/PocketVec_v2/GitLab_repo

>  <Rbt.Executable>
rbdock ($Id: //depot/dev/client3/rdock/2021.1/src/exe/rbdock.cxx#4 $)

>  <Rbt.Library>
libRbt.so (2021.1, Build901 2021/07/19)

>  <Rbt.Parameter_File>
examples/2_pocketvec/rDock_results/dock.prm

>  <Rbt.Receptor>
examples/2_pocketvec/rDock_results/st_parameters.prm

>  <SCORE>
71.5986

>  <SCORE.INTER>
77.035

>  <SCORE.INTER.CONST>
1

>  <SCORE.INTER.POLAR>
0

>  <SCORE.INTER.REPUL>
0.00635813

>  <SCORE.INTER.ROT>
5

>  <SCORE.INTER.VDW>
66.6032

>  <SCORE.INTER.norm>
3.0814

>  <SCORE.INTRA>
3.13405e-12

>  <SCORE.INTRA.DIHEDRAL>
7.90035e-13

>  <SCORE.INTRA.DIHEDRAL.0>
2.47798

>  <SCORE.INTRA.POLAR>
0

>  <SCORE.INTRA.POLAR.0>
0

>  <SCORE.INTRA.REPUL>
0

>  <SCORE.INTRA.REPUL.0>
0

>  <SCORE.INTRA.VDW>
2.73903e-12

>  <SCORE.INTRA.VDW.0>
0.259464

>  <SCORE.INTRA.norm>
1.25362e-13

>  <SCORE.RESTR>
0.0201655

>  <SCORE.RESTR.CAVITY>
0.0201655

>  <SCORE.RESTR.norm>
0.00080662

>  <SCORE.SYSTEM>
-5.45655

>  <SCORE.SYSTEM.CONST>
0

>  <SCORE.SYSTEM.DIHEDRAL>
1.25557

>  <SCORE.SYSTEM.POLAR>
-1.74558

>  <SCORE.SYSTEM.VDW>
-0.149353

>  <SCORE.SYSTEM.norm>
-0.218262

>  <SCORE.heavy>
25

>  <SCORE.norm>
2.86394

$$$$
Tripos 1554-03007
  rDOCK(R)          3D
libRbt.so/2021.1/901 2021/07/19
 22 23  0  0  0  0  0  0  0  0999 V2000
   -3.1883    0.9968   11.1682 S   0  0  0  0  0  0
   -3.6259    1.1840   12.7843 N   0  0  0  0  0  0
   -2.0597    2.3646   10.9176 C   0  0  0  0  0  0
   -5.9902    3.0803   15.0257 C   0  0  0  0  0  0
   -4.9936    2.1411   14.5474 C   0  0  0  0  0  0
   -2.4439   -0.2487   11.0702 O   0  0  0  0  0  0
   -4.3744    1.2016   10.3539 O   0  0  0  0  0  0
   -6.5546    2.9534   16.3004 C   0  0  0  0  0  0
   -4.4005    2.3680   13.1689 C   0  0  0  0  0  0
   -4.6160    1.1486   15.4465 C   0  0  0  0  0  0
   -2.5711    3.5797   10.4740 C   0  0  0  0  0  0
   -0.7007    2.1677   11.1049 C   0  0  0  0  0  0
   -6.1510    1.9210   17.1439 C   0  0  0  0  0  0
   -6.5301    4.4062   14.0531 Cl  0  0  0  0  0  0
   -0.3198    4.4601   10.4380 C   0  0  0  0  0  0
   -5.1790    1.0213   16.7188 C   0  0  0  0  0  0
   -1.6896    4.6368   10.2396 C   0  0  0  0  0  0
    0.1750    3.2279   10.8699 C   0  0  0  0  0  0
   -6.7432    1.8669   18.3370 F   0  0  0  0  0  0
    0.6481    5.4276   10.2326 O   0  0  0  0  0  0
    0.2011    6.7041    9.7896 C   0  0  0  0  0  0
   -2.7725    1.1982   13.3247 H   0  0  0  0  0  0
  1  2  1  0  0  0
  1  3  1  0  0  0
  1  6  2  0  0  0
  1  7  2  0  0  0
  2  9  1  0  0  0
  2 22  1  0  0  0
  3 11  2  0  0  0
  3 12  1  0  0  0
  4  5  2  0  0  0
  4  8  1  0  0  0
  4 14  1  0  0  0
  5  9  1  0  0  0
  5 10  1  0  0  0
  8 13  2  0  0  0
 10 16  2  0  0  0
 11 17  1  0  0  0
 12 18  2  0  0  0
 13 16  1  0  0  0
 13 19  1  0  0  0
 15 17  2  0  0  0
 15 18  1  0  0  0
 15 20  1  0  0  0
 20 21  1  0  0  0
M  END
>  <$CLUSTER>
92

>  <CHROM.0>
177.59717523,171.55767233,74.39478067

>  <CHROM.1>
-3.58545586,2.69638927,12.85693853,-0.06119647,-0.84830157,-2.96370910

>  <INDEX>
466465

>  <Name>
Tripos 1554-03007

>  <RI>
-2.07807e+09

>  <Rbt.Current_Directory>
/aloy/home/acomajuncosa/PocketVec_v2/GitLab_repo

>  <Rbt.Executable>
rbdock ($Id: //depot/dev/client3/rdock/2021.1/src/exe/rbdock.cxx#4 $)

>  <Rbt.Library>
libRbt.so (2021.1, Build901 2021/07/19)

>  <Rbt.Parameter_File>
examples/2_pocketvec/rDock_results/dock.prm

>  <Rbt.Receptor>
examples/2_pocketvec/rDock_results/st_parameters.prm

>  <SCORE>
-16.953

>  <SCORE.INTER>
-11.511

>  <SCORE.INTER.CONST>
1

>  <SCORE.INTER.POLAR>
-1.56642

>  <SCORE.INTER.REPUL>
0

>  <SCORE.INTER.ROT>
5

>  <SCORE.INTER.VDW>
-16.5852

>  <SCORE.INTER.norm>
-0.548143

>  <SCORE.INTRA>
-1.57119e-12

>  <SCORE.INTRA.DIHEDRAL>
-1.92735e-13

>  <SCORE.INTRA.DIHEDRAL.0>
2.47231

>  <SCORE.INTRA.POLAR>
0

>  <SCORE.INTRA.POLAR.0>
0

>  <SCORE.INTRA.REPUL>
0

>  <SCORE.INTRA.REPUL.0>
0

>  <SCORE.INTRA.VDW>
-1.47482e-12

>  <SCORE.INTRA.VDW.0>
0.642907

>  <SCORE.INTRA.norm>
-7.48185e-14

>  <SCORE.RESTR>
0

>  <SCORE.RESTR.CAVITY>
0

>  <SCORE.RESTR.norm>
0

>  <SCORE.SYSTEM>
-5.44195

>  <SCORE.SYSTEM.CONST>
0

>  <SCORE.SYSTEM.DIHEDRAL>
1.39661

>  <SCORE.SYSTEM.POLAR>
-1.74995

>  <SCORE.SYSTEM.VDW>
-0.190445

>  <SCORE.SYSTEM.norm>
-0.259141

>  <SCORE.heavy>
21

>  <SCORE.norm>
-0.807284

$$$$
Asinex ASN 06116813
  rDOCK(R)          3D
libRbt.so/2021.1/901 2021/07/19
 33 37  0  0  0  0  0  0  0  0999 V2000
   -4.0096    2.9325   10.5489 N   0  0  0  0  0  0
   -3.4828    4.2072   10.5093 C   0  0  0  0  0  0
   -2.0894    4.4057   10.7750 C   0  0  0  0  0  0
   -5.3238    2.9813   10.2738 N   0  0  0  0  0  0
   -5.5905    4.2648   10.0668 N   0  0  0  0  0  0
   -4.4609    5.0370   10.2083 N   0  0  0  0  0  0
   -3.2781    1.7738   10.8304 C   0  0  0  0  0  0
   -1.3378    3.3146   11.0430 C   0  0  0  0  0  0
   -1.9042    6.6463   11.7999 N   0  0  0  0  0  0
   -2.9396    7.5786   11.6647 C   0  0  0  0  0  0
   -1.9092    1.9590   11.0851 C   0  0  0  0  0  0
   -1.4300    5.7700   10.7315 C   0  0  0  0  0  0
   -3.6110    7.6534   10.3150 C   0  0  0  0  0  0
   -1.2347    6.5286   13.1019 C   0  0  0  0  0  0
   -3.3135    8.3316   12.5679 O   0  0  0  0  0  0
   -4.9135    8.1251   10.2705 C   0  0  0  0  0  0
   -3.8679    0.5111   10.8575 C   0  0  0  0  0  0
   -5.5716    8.2096    9.0424 C   0  0  0  0  0  0
   -0.0298    7.4515   13.1981 C   0  0  0  0  0  0
   -1.1237    0.8408   11.3719 C   0  0  0  0  0  0
   -2.9455    7.2696    9.1561 C   0  0  0  0  0  0
   -6.8643    8.6891    9.1149 O   0  0  0  0  0  0
   -1.7035   -0.4313   11.4019 C   0  0  0  0  0  0
   -3.6085    7.3578    7.9286 C   0  0  0  0  0  0
   -3.0688   -0.5943   11.1463 C   0  0  0  0  0  0
   -5.3183    0.3444   10.5855 C   0  0  0  0  0  0
   -4.9203    7.8242    7.8721 C   0  0  0  0  0  0
   -0.1309    8.6843   13.8560 C   0  0  0  0  0  0
    1.1915    7.0835   12.6165 C   0  0  0  0  0  0
   -7.5826    8.7953    7.8912 C   0  0  0  0  0  0
    2.3015    7.9269   12.7113 C   0  0  0  0  0  0
    0.9808    9.5272   13.9495 C   0  0  0  0  0  0
    2.1962    9.1469   13.3797 C   0  0  0  0  0  0
  1  2  1  0  0  0
  1  4  1  0  0  0
  1  7  1  0  0  0
  2  3  1  0  0  0
  2  6  2  0  0  0
  3  8  2  0  0  0
  3 12  1  0  0  0
  4  5  2  0  0  0
  5  6  1  0  0  0
  7 11  2  0  0  0
  7 17  1  0  0  0
  8 11  1  0  0  0
  9 10  1  0  0  0
  9 12  1  0  0  0
  9 14  1  0  0  0
 10 13  1  0  0  0
 10 15  2  0  0  0
 11 20  1  0  0  0
 13 16  2  0  0  0
 13 21  1  0  0  0
 14 19  1  0  0  0
 16 18  1  0  0  0
 17 25  2  0  0  0
 17 26  1  0  0  0
 18 22  1  0  0  0
 18 27  2  0  0  0
 19 28  1  0  0  0
 19 29  2  0  0  0
 20 23  2  0  0  0
 21 24  2  0  0  0
 22 30  1  0  0  0
 23 25  1  0  0  0
 24 27  1  0  0  0
 28 32  2  0  0  0
 29 31  1  0  0  0
 31 33  2  0  0  0
 32 33  1  0  0  0
M  END
>  <$CLUSTER>
245

>  <CHROM.0>
178.57040003,171.58661026,73.79232304

>  <CHROM.1>
-2.82608240,5.49567401,10.94916251,2.01361374,0.54233873,3.11741737

>  <INDEX>
154751

>  <Name>
Asinex ASN 06116813

>  <RI>
-2.07807e+09

>  <Rbt.Current_Directory>
/aloy/home/acomajuncosa/PocketVec_v2/GitLab_repo

>  <Rbt.Executable>
rbdock ($Id: //depot/dev/client3/rdock/2021.1/src/exe/rbdock.cxx#4 $)

>  <Rbt.Library>
libRbt.so (2021.1, Build901 2021/07/19)

>  <Rbt.Parameter_File>
examples/2_pocketvec/rDock_results/dock.prm

>  <Rbt.Receptor>
examples/2_pocketvec/rDock_results/st_parameters.prm

>  <SCORE>
-9.43149

>  <SCORE.INTER>
-3.97488

>  <SCORE.INTER.CONST>
1

>  <SCORE.INTER.POLAR>
-0.503362

>  <SCORE.INTER.REPUL>
0

>  <SCORE.INTER.ROT>
6

>  <SCORE.INTER.VDW>
-13.6635

>  <SCORE.INTER.norm>
-0.120451

>  <SCORE.INTRA>
9.71667e-13

>  <SCORE.INTRA.DIHEDRAL>
5.02709e-13

>  <SCORE.INTRA.DIHEDRAL.0>
6.2317

>  <SCORE.INTRA.POLAR>
0

>  <SCORE.INTRA.POLAR.0>
0

>  <SCORE.INTRA.REPUL>
0

>  <SCORE.INTRA.REPUL.0>
0

>  <SCORE.INTRA.VDW>
7.20313e-13

>  <SCORE.INTRA.VDW.0>
2.55892

>  <SCORE.INTRA.norm>
2.94445e-14

>  <SCORE.RESTR>
0

>  <SCORE.RESTR.CAVITY>
0

>  <SCORE.RESTR.norm>
0

>  <SCORE.SYSTEM>
-5.45661

>  <SCORE.SYSTEM.CONST>
0

>  <SCORE.SYSTEM.DIHEDRAL>
1.3113

>  <SCORE.SYSTEM.POLAR>
-1.74501

>  <SCORE.SYSTEM.VDW>
-0.179231

>  <SCORE.SYSTEM.norm>
-0.165352

>  <SCORE.heavy>
33

>  <SCORE.norm>
-0.285803

$$$$
Tripos 1559-05871
  rDOCK(R)          3D
libRbt.so/2021.1/901 2021/07/19
 20 21  0  0  0  0  0  0  0  0999 V2000
   -4.0704    2.5095   11.5700 S   0  0  0  0  0  0
   -4.6014    2.2564   13.2266 C   0  0  0  0  0  0
   -3.3479    1.0729   11.1290 N   0  0  0  0  0  0
   -5.2582    3.2784   13.9159 C   0  0  0  0  0  0
   -4.3675    1.0274   13.8601 C   0  0  0  0  0  0
   -5.6768    3.0648   15.2367 C   0  0  0  0  0  0
   -5.2500    2.6511   10.7353 O   0  0  0  0  0  0
   -3.0217    3.5123   11.5818 O   0  0  0  0  0  0
   -5.4417    1.8408   15.8627 C   0  0  0  0  0  0
   -4.7869    0.8236   15.1745 C   0  0  0  0  0  0
   -4.1749   -0.2156   11.0168 C   0  0  0  0  0  0
   -5.6003    4.8298   13.2378 Cl  0  0  0  0  0  0
   -2.0333    0.6612   11.7863 C   0  0  0  0  0  0
   -5.9614    1.6067   17.4669 Cl  0  0  0  0  0  0
   -4.2731   -0.5837    9.5350 C   0  0  0  0  0  0
   -5.1802    0.2859    8.8673 O   0  0  0  0  0  0
   -1.9608   -0.8536   11.6749 C   0  0  0  0  0  0
   -3.4123   -1.2679   11.8259 C   0  0  0  0  0  0
   -4.5306   -0.4890   15.8408 C   0  0  0  0  0  0
   -6.0377    0.1898    9.2881 H   0  0  0  0  0  0
  1  2  1  0  0  0
  1  3  1  0  0  0
  1  7  2  0  0  0
  1  8  2  0  0  0
  2  4  1  0  0  0
  2  5  2  0  0  0
  3 11  1  0  0  0
  3 13  1  0  0  0
  4  6  2  0  0  0
  4 12  1  0  0  0
  5 10  1  0  0  0
  6  9  1  0  0  0
  9 10  2  0  0  0
  9 14  1  0  0  0
 10 19  1  0  0  0
 11 15  1  0  0  0
 11 18  1  0  0  0
 13 17  1  0  0  0
 15 16  1  0  0  0
 16 20  1  0  0  0
 17 18  1  0  0  0
M  END
>  <$CLUSTER>
725

>  <CHROM.0>
179.36898522,171.82238886,74.04286680

>  <CHROM.1>
-4.52449155,1.66544637,12.98982974,0.62284915,1.19481767,-0.93930394

>  <INDEX>
474190

>  <Name>
Tripos 1559-05871

>  <RI>
-2.07807e+09

>  <Rbt.Current_Directory>
/aloy/home/acomajuncosa/PocketVec_v2/GitLab_repo

>  <Rbt.Executable>
rbdock ($Id: //depot/dev/client3/rdock/2021.1/src/exe/rbdock.cxx#4 $)

>  <Rbt.Library>
libRbt.so (2021.1, Build901 2021/07/19)

>  <Rbt.Parameter_File>
examples/2_pocketvec/rDock_results/dock.prm

>  <Rbt.Receptor>
examples/2_pocketvec/rDock_results/st_parameters.prm

>  <SCORE>
-3.36875

>  <SCORE.INTER>
2.08749

>  <SCORE.INTER.CONST>
1

>  <SCORE.INTER.POLAR>
-1.77759

>  <SCORE.INTER.REPUL>
0

>  <SCORE.INTER.ROT>
3

>  <SCORE.INTER.VDW>
-0.268691

>  <SCORE.INTER.norm>
0.109868

>  <SCORE.INTRA>
6.56142e-13

>  <SCORE.INTRA.DIHEDRAL>
7.33191e-13

>  <SCORE.INTRA.DIHEDRAL.0>
2.05975

>  <SCORE.INTRA.POLAR>
0

>  <SCORE.INTRA.POLAR.0>
0

>  <SCORE.INTRA.REPUL>
0

>  <SCORE.INTRA.REPUL.0>
0

>  <SCORE.INTRA.VDW>
2.89546e-13

>  <SCORE.INTRA.VDW.0>
-2.61259

>  <SCORE.INTRA.norm>
3.45338e-14

>  <SCORE.RESTR>
0

>  <SCORE.RESTR.CAVITY>
0

>  <SCORE.RESTR.norm>
0

>  <SCORE.SYSTEM>
-5.45624

>  <SCORE.SYSTEM.CONST>
0

>  <SCORE.SYSTEM.DIHEDRAL>
1.32029

>  <SCORE.SYSTEM.POLAR>
-1.74706

>  <SCORE.SYSTEM.VDW>
-0.17636

>  <SCORE.SYSTEM.norm>
-0.28717

>  <SCORE.heavy>
19

>  <SCORE.norm>
-0.177302

$$$$
Specs AN-648/40682295
  rDOCK(R)          3D
libRbt.so/2021.1/901 2021/07/19
 23 24  0  0  0  0  0  0  0  0999 V2000
   -5.1403    4.8406   14.7410 N   0  0  0  0  0  0
   -4.9437    3.6847   14.1959 C   0  0  0  0  0  0
   -5.0831    2.4288   14.9980 C   0  0  0  0  0  0
   -3.9475    0.1115   10.9700 C   0  0  0  0  0  0
   -5.9251    7.5804   12.3654 C   0  0  0  0  0  0
   -4.8608    1.1873   14.3666 C   0  0  0  0  0  0
   -4.5259    1.2065   13.0372 O   0  0  0  0  0  0
   -4.6802    8.1962   12.2476 C   0  0  0  0  0  0
   -6.0774    6.4639   13.1887 C   0  0  0  0  0  0
   -3.8591    1.1958   10.4010 O   0  0  0  0  0  0
   -4.9825    5.9511   13.8955 C   0  0  0  0  0  0
   -3.5876    7.6992   12.9559 C   0  0  0  0  0  0
   -4.3006   -0.0445   12.3980 C   0  0  0  0  0  0
   -3.7295   -1.0970   10.3470 N   0  0  0  0  0  0
   -3.7377    6.5829   13.7801 C   0  0  0  0  0  0
   -5.4254    2.4975   16.3425 C   0  0  0  0  0  0
   -7.1019    8.1102   11.6119 C   0  0  0  0  0  0
   -4.5109    9.3894   11.3643 C   0  0  0  0  0  0
   -4.9949    0.0211   15.1309 C   0  0  0  0  0  0
   -5.5545    1.3267   17.0877 C   0  0  0  0  0  0
   -5.3396    0.0924   16.4828 C   0  0  0  0  0  0
   -3.4816   -1.1231    9.3678 H   0  0  0  0  0  0
   -3.8174   -1.9575   10.8683 H   0  0  0  0  0  0
  1  2  2  0  0  0
  1 11  1  0  0  0
  2  3  1  0  0  0
  3  6  2  0  0  0
  3 16  1  0  0  0
  4 10  2  0  0  0
  4 13  1  0  0  0
  4 14  1  0  0  0
  5  8  1  0  0  0
  5  9  2  0  0  0
  5 17  1  0  0  0
  6  7  1  0  0  0
  6 19  1  0  0  0
  7 13  1  0  0  0
  8 12  2  0  0  0
  8 18  1  0  0  0
  9 11  1  0  0  0
 11 15  2  0  0  0
 12 15  1  0  0  0
 14 22  1  0  0  0
 14 23  1  0  0  0
 16 20  2  0  0  0
 19 21  2  0  0  0
 20 21  1  0  0  0
M  END
>  <$CLUSTER>
813

>  <CHROM.0>
178.55905556,172.26811255,73.97678760

>  <CHROM.1>
-4.85610053,3.63145068,13.33318815,1.89396280,1.33204517,-0.44524414

>  <INDEX>
526345

>  <Name>
Specs AN-648/40682295

>  <RI>
-2.07807e+09

>  <Rbt.Current_Directory>
/aloy/home/acomajuncosa/PocketVec_v2/GitLab_repo

>  <Rbt.Executable>
rbdock ($Id: //depot/dev/client3/rdock/2021.1/src/exe/rbdock.cxx#4 $)

>  <Rbt.Library>
libRbt.so (2021.1, Build901 2021/07/19)

>  <Rbt.Parameter_File>
examples/2_pocketvec/rDock_results/dock.prm

>  <Rbt.Receptor>
examples/2_pocketvec/rDock_results/st_parameters.prm

>  <SCORE>
-16.8236

>  <SCORE.INTER>
-11.3664

>  <SCORE.INTER.CONST>
1

>  <SCORE.INTER.POLAR>
-0.825896

>  <SCORE.INTER.REPUL>
0

>  <SCORE.INTER.ROT>
5

>  <SCORE.INTER.VDW>
-18.9584

>  <SCORE.INTER.norm>
-0.541258

>  <SCORE.INTRA>
-7.25198e-13

>  <SCORE.INTRA.DIHEDRAL>
-1.24345e-14

>  <SCORE.INTRA.DIHEDRAL.0>
7.73422

>  <SCORE.INTRA.POLAR>
0

>  <SCORE.INTRA.POLAR.0>
0

>  <SCORE.INTRA.REPUL>
0

>  <SCORE.INTRA.REPUL.0>
0

>  <SCORE.INTRA.VDW>
-7.1898e-13

>  <SCORE.INTRA.VDW.0>
0.705343

>  <SCORE.INTRA.norm>
-3.45332e-14

>  <SCORE.RESTR>
0

>  <SCORE.RESTR.CAVITY>
0

>  <SCORE.RESTR.norm>
0

>  <SCORE.SYSTEM>
-5.45713

>  <SCORE.SYSTEM.CONST>
0

>  <SCORE.SYSTEM.DIHEDRAL>
1.28234

>  <SCORE.SYSTEM.POLAR>
-1.74652

>  <SCORE.SYSTEM.VDW>
-0.16012

>  <SCORE.SYSTEM.norm>
-0.259863

>  <SCORE.heavy>
21

>  <SCORE.norm>
-0.801122

$$$$
ASDI 150016433
  rDOCK(R)          3D
libRbt.so/2021.1/901 2021/07/19
 11 11  0  0  0  0  0  0  0  0999 V2000
   -4.7233    2.3422   13.0161 N   0  0  0  0  0  0
   -4.3494    1.7569   12.0791 C   0  0  0  0  0  0
   -3.8671    1.0182   10.8861 C   0  0  0  0  0  0
   -3.8028   -0.4781   11.1706 C   0  0  0  0  0  0
   -4.7375    1.2191    9.7650 O   0  0  0  0  0  0
   -2.5360   -1.1169   11.3062 C   0  0  0  0  0  0
   -4.9468   -1.2705   11.3256 C   0  0  0  0  0  0
   -2.4490   -2.4824   11.5849 C   0  0  0  0  0  0
   -4.8570   -2.6350   11.6041 C   0  0  0  0  0  0
   -3.6084   -3.2412   11.7334 C   0  0  0  0  0  0
   -5.6010    0.8717   10.0017 H   0  0  0  0  0  0
  1  2  3  0  0  0
  2  3  1  0  0  0
  3  4  1  0  0  0
  3  5  1  0  0  0
  4  6  2  0  0  0
  4  7  1  0  0  0
  5 11  1  0  0  0
  6  8  1  0  0  0
  7  9  2  0  0  0
  8 10  2  0  0  0
  9 10  1  0  0  0
M  END
>  <$CLUSTER>
24

>  <CHROM.0>
-0.07120160,171.58855458,74.02675645

>  <CHROM.1>
-4.02085029,-0.43631360,11.40746822,-2.19893234,1.17847326,-2.54062547

>  <INDEX>
14597

>  <Name>
ASDI 150016433

>  <RI>
-2.07807e+09

>  <Rbt.Current_Directory>
/aloy/home/acomajuncosa/PocketVec_v2/GitLab_repo

>  <Rbt.Executable>
rbdock ($Id: //depot/dev/client3/rdock/2021.1/src/exe/rbdock.cxx#4 $)

>  <Rbt.Library>
libRbt.so (2021.1, Build901 2021/07/19)

>  <Rbt.Parameter_File>
examples/2_pocketvec/rDock_results/dock.prm

>  <Rbt.Receptor>
examples/2_pocketvec/rDock_results/st_parameters.prm

>  <SCORE>
-16.9167

>  <SCORE.INTER>
-11.3063

>  <SCORE.INTER.CONST>
1

>  <SCORE.INTER.POLAR>
-1.93993

>  <SCORE.INTER.REPUL>
0

>  <SCORE.INTER.ROT>
1

>  <SCORE.INTER.VDW>
-11.1106

>  <SCORE.INTER.norm>
-1.13063

>  <SCORE.INTRA>
1.7697e-13

>  <SCORE.INTRA.DIHEDRAL>
1.40443e-13

>  <SCORE.INTRA.DIHEDRAL.0>
0.752938

>  <SCORE.INTRA.POLAR>
0

>  <SCORE.INTRA.POLAR.0>
0

>  <SCORE.INTRA.REPUL>
0

>  <SCORE.INTRA.REPUL.0>
0

>  <SCORE.INTRA.VDW>
1.06748e-13

>  <SCORE.INTRA.VDW.0>
-0.453069

>  <SCORE.INTRA.norm>
1.7697e-14

>  <SCORE.RESTR>
0

>  <SCORE.RESTR.CAVITY>
0

>  <SCORE.RESTR.norm>
0

>  <SCORE.SYSTEM>
-5.61036

>  <SCORE.SYSTEM.CONST>
0

>  <SCORE.SYSTEM.DIHEDRAL>
1.33501

>  <SCORE.SYSTEM.POLAR>
-1.74693

>  <SCORE.SYSTEM.VDW>
-0.338291

>  <SCORE.SYSTEM.norm>
-0.561036

>  <SCORE.heavy>
10

>  <SCORE.norm>
-1.69167

$$$$
Tripos 1557-01752
  rDOCK(R)          3D
libRbt.so/2021.1/901 2021/07/19
 24 26  0  0  0  0  0  0  0  0999 V2000
   -2.0029    1.2368   10.6953 S   0  0  0  0  0  0
   -2.6132    2.1001   12.0346 C   0  0  0  0  0  0
   -2.0458    3.1674   12.6770 C   0  0  0  0  0  0
   -3.7951    1.8214   12.7630 C   0  0  0  0  0  0
   -3.9669    2.6908   13.7696 N   0  0  0  0  0  0
   -2.8883    3.4985   13.6968 N   0  0  0  0  0  0
   -1.0594    2.2922    9.7493 N   0  0  0  0  0  0
    0.3578    4.6548    8.7109 N   0  0  0  0  0  0
   -3.1803    0.8677    9.9372 O   0  0  0  0  0  0
   -1.1433    0.2451   11.3087 O   0  0  0  0  0  0
   -1.8038    3.3754    9.0894 C   0  0  0  0  0  0
    0.1807    2.7685   10.4050 C   0  0  0  0  0  0
    0.7631    5.9175    8.6834 C   0  0  0  0  0  0
   -0.8707    4.1404    8.0882 C   0  0  0  0  0  0
    1.0644    3.5481    9.3706 C   0  0  0  0  0  0
   -0.5994    4.0280   12.4388 Cl  0  0  0  0  0  0
    1.9564    6.3350    9.3076 C   0  0  0  0  0  0
    0.0256    6.9261    8.0277 C   0  0  0  0  0  0
   -4.7926    0.7444   12.5537 C   0  0  0  0  0  0
   -2.7506    4.5648   14.6591 C   0  0  0  0  0  0
    1.6334    8.6319    8.6230 C   0  0  0  0  0  0
    2.3870    7.6687    9.2796 C   0  0  0  0  0  0
    0.4513    8.2597    7.9973 C   0  0  0  0  0  0
    2.1088    9.8743    8.6417 F   0  0  0  0  0  0
  1  2  1  0  0  0
  1  7  1  0  0  0
  1  9  2  0  0  0
  1 10  2  0  0  0
  2  3  2  0  0  0
  2  4  1  0  0  0
  3  6  1  0  0  0
  3 16  1  0  0  0
  4  5  2  0  0  0
  4 19  1  0  0  0
  5  6  1  0  0  0
  6 20  1  0  0  0
  7 11  1  0  0  0
  7 12  1  0  0  0
  8 13  1  0  0  0
  8 14  1  0  0  0
  8 15  1  0  0  0
 11 14  1  0  0  0
 12 15  1  0  0  0
 13 17  2  0  0  0
 13 18  1  0  0  0
 17 22  1  0  0  0
 18 23  2  0  0  0
 21 22  2  0  0  0
 21 23  1  0  0  0
 21 24  1  0  0  0
M  END
>  <$CLUSTER>
693

>  <CHROM.0>
175.28947397,171.42252596,73.94852984

>  <CHROM.1>
-0.97598242,3.98452413,10.64071083,-2.87892231,0.98750892,0.71372679

>  <INDEX>
469101

>  <Name>
Tripos 1557-01752

>  <RI>
-2.07807e+09

>  <Rbt.Current_Directory>
/aloy/home/acomajuncosa/PocketVec_v2/GitLab_repo

>  <Rbt.Executable>
rbdock ($Id: //depot/dev/client3/rdock/2021.1/src/exe/rbdock.cxx#4 $)

>  <Rbt.Library>
libRbt.so (2021.1, Build901 2021/07/19)

>  <Rbt.Parameter_File>
examples/2_pocketvec/rDock_results/dock.prm

>  <Rbt.Receptor>
examples/2_pocketvec/rDock_results/st_parameters.prm

>  <SCORE>
-12.9483

>  <SCORE.INTER>
-7.49084

>  <SCORE.INTER.CONST>
1

>  <SCORE.INTER.POLAR>
-0.679463

>  <SCORE.INTER.REPUL>
0

>  <SCORE.INTER.ROT>
3

>  <SCORE.INTER.VDW>
-13.5807

>  <SCORE.INTER.norm>
-0.312119

>  <SCORE.INTRA>
-7.56706e-12

>  <SCORE.INTRA.DIHEDRAL>
-2.34035e-13

>  <SCORE.INTRA.DIHEDRAL.0>
1.22968

>  <SCORE.INTRA.POLAR>
0

>  <SCORE.INTRA.POLAR.0>
0

>  <SCORE.INTRA.REPUL>
0

>  <SCORE.INTRA.REPUL.0>
0

>  <SCORE.INTRA.VDW>
-7.45004e-12

>  <SCORE.INTRA.VDW.0>
11.0573

>  <SCORE.INTRA.norm>
-3.15294e-13

>  <SCORE.RESTR>
0

>  <SCORE.RESTR.CAVITY>
0

>  <SCORE.RESTR.norm>
0

>  <SCORE.SYSTEM>
-5.45746

>  <SCORE.SYSTEM.CONST>
0

>  <SCORE.SYSTEM.DIHEDRAL>
1.3789

>  <SCORE.SYSTEM.POLAR>
-1.74629

>  <SCORE.SYSTEM.VDW>
-0.209518

>  <SCORE.SYSTEM.norm>
-0.227394

>  <SCORE.heavy>
24

>  <SCORE.norm>
-0.539513

$$$$
Tripos 1518-06794
  rDOCK(R)          3D
libRbt.so/2021.1/901 2021/07/19
 29 32  0  0  0  0  0  0  0  0999 V2000
   -1.4194    4.6526    7.3192 N   0  0  0  0  0  0
    0.9059    5.3374   11.1067 C   0  0  0  0  0  0
   -0.6070    3.5802    7.5829 C   0  0  0  0  0  0
   -2.4260    4.4246    8.1243 C   0  0  0  0  0  0
    2.2626    4.7794   10.7579 C   0  0  0  0  0  0
   -1.0709    2.7276    8.5073 N   0  0  0  0  0  0
    0.0897    4.7993   12.4795 S   0  0  0  0  0  0
   -2.2977    3.2963    8.8687 O   0  0  0  0  0  0
    2.8615    5.2716    9.6212 N   0  0  0  0  0  0
   -1.2385    5.8291   12.1771 C   0  0  0  0  0  0
    0.1876    6.2984   10.4043 C   0  0  0  0  0  0
   -1.0590    6.5764   11.0374 C   0  0  0  0  0  0
    1.7962    4.1357    7.5625 N   0  3  0  0  0  0
    0.6890    3.3916    6.9082 C   0  0  0  0  0  0
    2.7687    3.9249   11.4899 O   0  0  0  0  0  0
   -3.5982    5.1826    8.3142 C   0  0  0  0  0  0
    2.2964    6.2938    8.7138 C   0  0  0  0  0  0
   -2.6251    5.8432   13.2823 S   0  0  0  0  0  0
    1.6971    5.6402    7.4267 C   0  0  0  0  0  0
    4.3149    4.4727    7.7097 C   0  0  0  0  0  0
    4.1829    4.7865    9.2033 C   0  0  0  0  0  0
    3.1647    3.6655    7.1210 C   0  0  0  0  0  0
   -4.5876    4.7961    9.2244 C   0  0  0  0  0  0
   -3.7719    6.3542    7.5663 C   0  0  0  0  0  0
   -3.9224    6.6155   12.2933 C   0  0  0  0  0  0
   -5.7375    5.5738    9.3858 C   0  0  0  0  0  0
   -4.9219    7.1304    7.7293 C   0  0  0  0  0  0
   -5.9051    6.7388    8.6384 C   0  0  0  0  0  0
    1.6836    3.9185    8.5426 H   0  0  0  0  0  0
  1  3  1  0  0  0
  1  4  2  0  0  0
  2  5  1  0  0  0
  2  7  1  0  0  0
  2 11  2  0  0  0
  3  6  2  0  0  0
  3 14  1  0  0  0
  4  8  1  0  0  0
  4 16  1  0  0  0
  5  9  1  0  0  0
  5 15  2  0  0  0
  6  8  1  0  0  0
  7 10  1  0  0  0
  9 17  1  0  0  0
  9 21  1  0  0  0
 10 12  2  0  0  0
 10 18  1  0  0  0
 11 12  1  0  0  0
 13 14  1  0  0  0
 13 19  1  0  0  0
 13 22  1  0  0  0
 13 29  1  0  0  0
 16 23  2  0  0  0
 16 24  1  0  0  0
 17 19  1  0  0  0
 18 25  1  0  0  0
 20 21  1  0  0  0
 20 22  1  0  0  0
 23 26  1  0  0  0
 24 27  2  0  0  0
 26 28  2  0  0  0
 27 28  1  0  0  0
M  END
>  <$CLUSTER>
675

>  <CHROM.0>
-0.17433215,172.30221391,75.07584580

>  <CHROM.1>
-0.63454785,5.07130602,9.62174198,2.95026790,-0.15831370,1.38157661

>  <INDEX>
443512

>  <Name>
Tripos 1518-06794

>  <RI>
-2.07807e+09

>  <Rbt.Current_Directory>
/aloy/home/acomajuncosa/PocketVec_v2/GitLab_repo

>  <Rbt.Executable>
rbdock ($Id: //depot/dev/client3/rdock/2021.1/src/exe/rbdock.cxx#4 $)

>  <Rbt.Library>
libRbt.so (2021.1, Build901 2021/07/19)

>  <Rbt.Parameter_File>
examples/2_pocketvec/rDock_results/dock.prm

>  <Rbt.Receptor>
examples/2_pocketvec/rDock_results/st_parameters.prm

>  <SCORE>
-10.3336

>  <SCORE.INTER>
-4.74142

>  <SCORE.INTER.CONST>
1

>  <SCORE.INTER.POLAR>
-0.798328

>  <SCORE.INTER.REPUL>
0

>  <SCORE.INTER.ROT>
5

>  <SCORE.INTER.VDW>
-12.4271

>  <SCORE.INTER.norm>
-0.169337

>  <SCORE.INTRA>
-2.3308e-12

>  <SCORE.INTRA.DIHEDRAL>
-4.44977e-13

>  <SCORE.INTRA.DIHEDRAL.0>
2.08077

>  <SCORE.INTRA.POLAR>
0

>  <SCORE.INTRA.POLAR.0>
0

>  <SCORE.INTRA.REPUL>
0

>  <SCORE.INTRA.REPUL.0>
0

>  <SCORE.INTRA.VDW>
-2.10831e-12

>  <SCORE.INTRA.VDW.0>
-0.547594

>  <SCORE.INTRA.norm>
-8.32429e-14

>  <SCORE.RESTR>
0

>  <SCORE.RESTR.CAVITY>
0

>  <SCORE.RESTR.norm>
0

>  <SCORE.SYSTEM>
-5.59215

>  <SCORE.SYSTEM.CONST>
0

>  <SCORE.SYSTEM.DIHEDRAL>
1.41647

>  <SCORE.SYSTEM.POLAR>
-1.75549

>  <SCORE.SYSTEM.VDW>
-0.331733

>  <SCORE.SYSTEM.norm>
-0.19972

>  <SCORE.heavy>
28

>  <SCORE.norm>
-0.369056

$$$$
InterBioScreen STOCK5S-48304
  rDOCK(R)          3D
libRbt.so/2021.1/901 2021/07/19
 33 37  0  0  0  0  0  0  0  0999 V2000
   -4.6456    5.7841   11.7357 C   0  0  0  0  0  0
   -4.0294    5.1867   10.7138 C   0  0  0  0  0  0
   -3.9679    3.7084   10.7037 N   0  0  0  0  0  0
   -5.2606    4.9974   12.8488 C   0  0  0  0  0  0
   -5.1419    3.6320   12.7353 N   0  0  0  0  0  0
   -4.5056    3.0572   11.6758 C   0  0  0  0  0  0
   -4.7028    7.2575   11.7384 C   0  0  0  0  0  0
   -3.4311    5.8174    9.6409 N   0  0  0  0  0  0
   -4.0726    7.9706   10.6048 C   0  0  0  0  0  0
   -3.4463    7.2313    9.5748 C   0  0  0  0  0  0
   -5.7266    2.8173   13.8287 C   0  0  0  0  0  0
   -4.3870    1.5968   11.5485 C   0  0  0  0  0  0
   -5.8273    5.5430   13.7908 O   0  0  0  0  0  0
   -5.2554    7.8588   12.6509 O   0  0  0  0  0  0
   -3.2510    0.9549   12.0419 C   0  0  0  0  0  0
   -5.4109    0.8765   10.9316 C   0  0  0  0  0  0
   -2.7807    5.0681    8.5689 C   0  0  0  0  0  0
   -4.7647    2.6610   14.9987 C   0  0  0  0  0  0
   -4.1842   -1.1651   11.3451 C   0  0  0  0  0  0
   -4.1126    9.3699   10.5833 C   0  0  0  0  0  0
   -3.1553   -0.4332   11.9438 C   0  0  0  0  0  0
   -5.3089   -0.5119   10.8367 C   0  0  0  0  0  0
   -2.8645    7.9626    8.5240 C   0  0  0  0  0  0
   -5.3574    1.8236   16.1014 C   0  0  0  0  0  0
   -3.9672   -2.5293   11.3024 O   0  0  0  0  0  0
   -5.1919    0.4304   16.1091 C   0  0  0  0  0  0
   -6.1059    2.4192   17.1272 C   0  0  0  0  0  0
   -4.9810   -3.3246   10.6983 C   0  0  0  0  0  0
   -3.5263   10.0625    9.5283 C   0  0  0  0  0  0
   -2.9038    9.3600    8.5009 C   0  0  0  0  0  0
   -6.6669    1.6409   18.1410 C   0  0  0  0  0  0
   -5.7539   -0.3461   17.1234 C   0  0  0  0  0  0
   -6.4895    0.2603   18.1389 C   0  0  0  0  0  0
  1  2  2  0  0  0
  1  4  1  0  0  0
  1  7  1  0  0  0
  2  3  1  0  0  0
  2  8  1  0  0  0
  3  6  2  0  0  0
  4  5  1  0  0  0
  4 13  2  0  0  0
  5  6  1  0  0  0
  5 11  1  0  0  0
  6 12  1  0  0  0
  7  9  1  0  0  0
  7 14  2  0  0  0
  8 10  1  0  0  0
  8 17  1  0  0  0
  9 10  2  0  0  0
  9 20  1  0  0  0
 10 23  1  0  0  0
 11 18  1  0  0  0
 12 15  2  0  0  0
 12 16  1  0  0  0
 15 21  1  0  0  0
 16 22  2  0  0  0
 18 24  1  0  0  0
 19 21  2  0  0  0
 19 22  1  0  0  0
 19 25  1  0  0  0
 20 29  2  0  0  0
 23 30  2  0  0  0
 24 26  1  0  0  0
 24 27  2  0  0  0
 25 28  1  0  0  0
 26 32  2  0  0  0
 27 31  1  0  0  0
 29 30  1  0  0  0
 31 33  2  0  0  0
 32 33  1  0  0  0
M  END
>  <$CLUSTER>
574

>  <CHROM.0>
-35.29634380,172.56764390,74.76316249

>  <CHROM.1>
-4.58671156,3.50644702,12.30704106,1.04899476,1.24342968,-0.00447596

>  <INDEX>
377513

>  <Name>
InterBioScreen STOCK5S-48304

>  <RI>
-2.07807e+09

>  <Rbt.Current_Directory>
/aloy/home/acomajuncosa/PocketVec_v2/GitLab_repo

>  <Rbt.Executable>
rbdock ($Id: //depot/dev/client3/rdock/2021.1/src/exe/rbdock.cxx#4 $)

>  <Rbt.Library>
libRbt.so (2021.1, Build901 2021/07/19)

>  <Rbt.Parameter_File>
examples/2_pocketvec/rDock_results/dock.prm

>  <Rbt.Receptor>
examples/2_pocketvec/rDock_results/st_parameters.prm

>  <SCORE>
3.03929

>  <SCORE.INTER>
8.02009

>  <SCORE.INTER.CONST>
1

>  <SCORE.INTER.POLAR>
0

>  <SCORE.INTER.REPUL>
0.0326006

>  <SCORE.INTER.ROT>
5

>  <SCORE.INTER.VDW>
-2.54291

>  <SCORE.INTER.norm>
0.243033

>  <SCORE.INTRA>
-1.24434e-12

>  <SCORE.INTRA.DIHEDRAL>
-7.84262e-13

>  <SCORE.INTRA.DIHEDRAL.0>
7.97009

>  <SCORE.INTRA.POLAR>
0

>  <SCORE.INTRA.POLAR.0>
0

>  <SCORE.INTRA.REPUL>
0

>  <SCORE.INTRA.REPUL.0>
0

>  <SCORE.INTRA.VDW>
-8.52207e-13

>  <SCORE.INTRA.VDW.0>
-0.382077

>  <SCORE.INTRA.norm>
-3.77072e-14

>  <SCORE.RESTR>
0.00180737

>  <SCORE.RESTR.CAVITY>
0.00180737

>  <SCORE.RESTR.norm>
5.47688e-05

>  <SCORE.SYSTEM>
-4.98261

>  <SCORE.SYSTEM.CONST>
0

>  <SCORE.SYSTEM.DIHEDRAL>
3.00478

>  <SCORE.SYSTEM.POLAR>
-1.75295

>  <SCORE.SYSTEM.VDW>
-0.524974

>  <SCORE.SYSTEM.norm>
-0.150988

>  <SCORE.heavy>
33

>  <SCORE.norm>
0.0920997

$$$$
Chem T&I PMOS-0027433
  rDOCK(R)          3D
libRbt.so/2021.1/901 2021/07/19
 34 38  0  0  0  0  0  0  0  0999 V2000
   -1.7602    9.0336   12.7902 N   0  0  0  0  0  0
   -2.8933    8.4604   13.2051 N   0  0  0  0  0  0
   -0.6610    8.2875   12.6537 N   0  0  0  0  0  0
   -4.8188    2.0511   15.0240 C   0  0  0  0  0  0
   -2.4778    7.1981   13.3536 C   0  0  0  0  0  0
   -1.1284    7.0976   13.0197 C   0  0  0  0  0  0
   -5.8226    0.4869   18.2363 N   0  3  0  0  0  0
   -4.5088    3.4392   14.6429 C   0  0  0  0  0  0
   -4.6537    0.9554   14.1506 C   0  0  0  0  0  0
   -3.1886    6.0683   13.7720 C   0  0  0  0  0  0
   -5.2112    1.8824   16.3629 C   0  0  0  0  0  0
   -2.5532    4.8256   13.8588 C   0  0  0  0  0  0
   -5.4181    0.6074   16.8745 C   0  0  0  0  0  0
   -4.3505    1.0674   12.7985 N   0  0  0  0  0  0
   -3.2022    3.6553   14.2720 N   0  0  0  0  0  0
   -0.4871    5.8662   13.1031 C   0  0  0  0  0  0
   -1.1942    4.7369   13.5200 C   0  0  0  0  0  0
   -4.8503   -0.3216   14.7202 C   0  0  0  0  0  0
   -5.9903   -0.6748   18.6323 O   0  5  0  0  0  0
   -1.7272   10.4581   12.4910 C   0  0  0  0  0  0
   -5.9844    1.4924   18.9425 O   0  0  0  0  0  0
   -5.3737    4.3056   14.7103 O   0  0  0  0  0  0
   -5.2279   -0.4973   16.0558 C   0  0  0  0  0  0
   -4.7331    0.5204   10.0828 O   0  0  0  0  0  0
   -4.9315    2.1093   11.9651 C   0  0  0  0  0  0
   -3.4696    0.0979   12.1639 C   0  0  0  0  0  0
   -4.2399   -0.4930   10.9615 C   0  0  0  0  0  0
   -5.6188    1.4047   10.7738 C   0  0  0  0  0  0
   -2.8845   11.2335   12.6359 C   0  0  0  0  0  0
   -0.5370   11.0563   12.0556 C   0  0  0  0  0  0
   -0.5102   12.4235   11.7693 C   0  0  0  0  0  0
   -2.8476   12.5997   12.3475 C   0  0  0  0  0  0
   -1.6634   13.1943   11.9148 C   0  0  0  0  0  0
   -2.6140    2.8354   14.3025 H   0  0  0  0  0  0
  1  2  1  0  0  0
  1  3  1  0  0  0
  1 20  1  0  0  0
  2  5  2  0  0  0
  3  6  2  0  0  0
  4  8  1  0  0  0
  4  9  1  0  0  0
  4 11  2  0  0  0
  5  6  1  0  0  0
  5 10  1  0  0  0
  6 16  1  0  0  0
  7 13  1  0  0  0
  7 19  1  0  0  0
  7 21  2  0  0  0
  8 15  1  0  0  0
  8 22  2  0  0  0
  9 14  1  0  0  0
  9 18  2  0  0  0
 10 12  2  0  0  0
 11 13  1  0  0  0
 12 15  1  0  0  0
 12 17  1  0  0  0
 13 23  2  0  0  0
 14 25  1  0  0  0
 14 26  1  0  0  0
 15 34  1  0  0  0
 16 17  2  0  0  0
 18 23  1  0  0  0
 20 29  1  0  0  0
 20 30  2  0  0  0
 24 27  1  0  0  0
 24 28  1  0  0  0
 25 28  1  0  0  0
 26 27  1  0  0  0
 29 32  2  0  0  0
 30 31  1  0  0  0
 31 33  2  0  0  0
 32 33  1  0  0  0
M  END
>  <$CLUSTER>
932

>  <CHROM.0>
-0.80551649,171.86787583,73.72185567

>  <CHROM.1>
-3.54131582,4.56654548,13.77867274,0.40158417,1.21288756,0.87691400

>  <INDEX>
610791

>  <Name>
Chem T&I PMOS-0027433

>  <RI>
-2.07807e+09

>  <Rbt.Current_Directory>
/aloy/home/acomajuncosa/PocketVec_v2/GitLab_repo

>  <Rbt.Executable>
rbdock ($Id: //depot/dev/client3/rdock/2021.1/src/exe/rbdock.cxx#4 $)

>  <Rbt.Library>
libRbt.so (2021.1, Build901 2021/07/19)

>  <Rbt.Parameter_File>
examples/2_pocketvec/rDock_results/dock.prm

>  <Rbt.Receptor>
examples/2_pocketvec/rDock_results/st_parameters.prm

>  <SCORE>
-22.0075

>  <SCORE.INTER>
-16.3995

>  <SCORE.INTER.CONST>
1

>  <SCORE.INTER.POLAR>
-1.69443

>  <SCORE.INTER.REPUL>
0

>  <SCORE.INTER.ROT>
4

>  <SCORE.INTER.VDW>
-20.0385

>  <SCORE.INTER.norm>
-0.496956

>  <SCORE.INTRA>
1.54587e-12

>  <SCORE.INTRA.DIHEDRAL>
-5.9508e-13

>  <SCORE.INTRA.DIHEDRAL.0>
14.6395

>  <SCORE.INTRA.POLAR>
0

>  <SCORE.INTRA.POLAR.0>
0

>  <SCORE.INTRA.REPUL>
0

>  <SCORE.INTRA.REPUL.0>
0

>  <SCORE.INTRA.VDW>
1.84341e-12

>  <SCORE.INTRA.VDW.0>
-1.3784

>  <SCORE.INTRA.norm>
4.68447e-14

>  <SCORE.RESTR>
0

>  <SCORE.RESTR.CAVITY>
0

>  <SCORE.RESTR.norm>
0

>  <SCORE.SYSTEM>
-5.60795

>  <SCORE.SYSTEM.CONST>
0

>  <SCORE.SYSTEM.DIHEDRAL>
1.27752

>  <SCORE.SYSTEM.POLAR>
-1.74443

>  <SCORE.SYSTEM.VDW>
-0.315654

>  <SCORE.SYSTEM.norm>
-0.169938

>  <SCORE.heavy>
33

>  <SCORE.norm>
-0.666893

$$$$
Lithuania 1067744
  rDOCK(R)          3D
libRbt.so/2021.1/901 2021/07/19
 29 32  0  0  0  0  0  0  0  0999 V2000
   -3.1537    2.9595    9.8764 N   0  0  0  0  0  0
   -4.2682    3.7926   10.1130 C   0  0  0  0  0  0
   -2.0308    3.4301    9.0304 C   0  0  0  0  0  0
   -2.4848    4.2868    7.9502 N   0  0  0  0  0  0
   -4.4459    4.9473    9.1973 C   0  0  0  0  0  0
   -3.5810    5.1056    8.1130 C   0  0  0  0  0  0
   -0.9144    4.1412    9.7848 C   0  0  0  0  0  0
   -3.0582    1.6463   10.4869 C   0  0  0  0  0  0
    0.3978    4.0628    9.2851 C   0  0  0  0  0  0
   -5.0974    3.6500   11.0067 O   0  0  0  0  0  0
    1.4522    4.7122    9.9288 C   0  0  0  0  0  0
    1.2104    5.4585   11.0796 C   0  0  0  0  0  0
   -1.1406    4.9075   10.9390 C   0  0  0  0  0  0
   -0.0838    5.5571   11.5821 C   0  0  0  0  0  0
   -1.8221    0.9944   10.6471 C   0  0  0  0  0  0
   -4.2050    0.9534   10.9138 C   0  0  0  0  0  0
   -2.8818   -0.9298   11.6595 C   0  0  0  0  0  0
   -5.5233    5.8241    9.3852 C   0  0  0  0  0  0
    2.7621    4.6689    9.4967 O   0  0  0  0  0  0
   -4.1172   -0.3169   11.4967 C   0  0  0  0  0  0
   -1.7337   -0.2742   11.2316 C   0  0  0  0  0  0
   -2.8846   -2.1331   12.2290 F   0  0  0  0  0  0
    2.3075    6.0677   11.6448 O   0  0  0  0  0  0
   -3.8157    6.1569    7.2156 C   0  0  0  0  0  0
    3.0453    3.9123    8.3252 C   0  0  0  0  0  0
    2.0967    6.8402   12.8205 C   0  0  0  0  0  0
   -5.7388    6.8672    8.4867 C   0  0  0  0  0  0
   -4.8872    7.0325    7.3997 C   0  0  0  0  0  0
   -1.9917    4.2828    7.0690 H   0  0  0  0  0  0
  1  2  1  0  0  0
  1  3  1  0  0  0
  1  8  1  0  0  0
  2  5  1  0  0  0
  2 10  2  0  0  0
  3  4  1  0  0  0
  3  7  1  0  0  0
  4  6  1  0  0  0
  4 29  1  0  0  0
  5  6  2  0  0  0
  5 18  1  0  0  0
  6 24  1  0  0  0
  7  9  1  0  0  0
  7 13  2  0  0  0
  8 15  1  0  0  0
  8 16  2  0  0  0
  9 11  2  0  0  0
 11 12  1  0  0  0
 11 19  1  0  0  0
 12 14  2  0  0  0
 12 23  1  0  0  0
 13 14  1  0  0  0
 15 21  2  0  0  0
 16 20  1  0  0  0
 17 20  2  0  0  0
 17 21  1  0  0  0
 17 22  1  0  0  0
 18 27  2  0  0  0
 19 25  1  0  0  0
 23 26  1  0  0  0
 24 28  2  0  0  0
 27 28  1  0  0  0
M  END
>  <$CLUSTER>
336

>  <CHROM.0>
170.92887367,171.39390454,73.45106542

>  <CHROM.1>
-1.87288288,3.67948670,10.08940549,2.49180345,0.22435976,2.76407768

>  <INDEX>
222901

>  <Name>
Lithuania 1067744

>  <RI>
-2.07807e+09

>  <Rbt.Current_Directory>
/aloy/home/acomajuncosa/PocketVec_v2/GitLab_repo

>  <Rbt.Executable>
rbdock ($Id: //depot/dev/client3/rdock/2021.1/src/exe/rbdock.cxx#4 $)

>  <Rbt.Library>
libRbt.so (2021.1, Build901 2021/07/19)

>  <Rbt.Parameter_File>
examples/2_pocketvec/rDock_results/dock.prm

>  <Rbt.Receptor>
examples/2_pocketvec/rDock_results/st_parameters.prm

>  <SCORE>
-11.3335

>  <SCORE.INTER>
-5.87546

>  <SCORE.INTER.CONST>
1

>  <SCORE.INTER.POLAR>
-0.184376

>  <SCORE.INTER.REPUL>
0

>  <SCORE.INTER.ROT>
4

>  <SCORE.INTER.VDW>
-14.6486

>  <SCORE.INTER.norm>
-0.209838

>  <SCORE.INTRA>
-4.79776e-12

>  <SCORE.INTRA.DIHEDRAL>
4.59188e-13

>  <SCORE.INTRA.DIHEDRAL.0>
2.4816

>  <SCORE.INTRA.POLAR>
0

>  <SCORE.INTRA.POLAR.0>
0

>  <SCORE.INTRA.REPUL>
-7.02181e-14

>  <SCORE.INTRA.REPUL.0>
0.0198152

>  <SCORE.INTRA.VDW>
-4.67626e-12

>  <SCORE.INTRA.VDW.0>
2.93734

>  <SCORE.INTRA.norm>
-1.71348e-13

>  <SCORE.RESTR>
0

>  <SCORE.RESTR.CAVITY>
0

>  <SCORE.RESTR.norm>
0

>  <SCORE.SYSTEM>
-5.45809

>  <SCORE.SYSTEM.CONST>
0

>  <SCORE.SYSTEM.DIHEDRAL>
1.41427

>  <SCORE.SYSTEM.POLAR>
-1.74219

>  <SCORE.SYSTEM.VDW>
-0.241766

>  <SCORE.SYSTEM.norm>
-0.194932

>  <SCORE.heavy>
28

>  <SCORE.norm>
-0.40477

$$$$
Maybridge HTS 06299
  rDOCK(R)          3D
libRbt.so/2021.1/901 2021/07/19
 25 27  0  0  0  0  0  0  0  0999 V2000
   -4.7610    1.9993   10.8812 S   0  0  0  0  0  0
   -4.1443    1.9718   12.4483 N   0  0  0  0  0  0
   -2.6626    7.2117    8.6161 C   0  0  0  0  0  0
   -3.7900    3.9796   13.5368 N   0  0  0  0  0  0
   -4.6385    2.9482   13.3353 C   0  0  0  0  0  0
   -4.1060    3.5355   10.2282 C   0  0  0  0  0  0
   -6.2120    2.0857   10.9315 O   0  0  0  0  0  0
   -4.1391    0.8990   10.1591 O   0  0  0  0  0  0
   -3.1530    5.9084    9.1721 C   0  0  0  0  0  0
   -4.2279    4.9586   14.3674 C   0  0  0  0  0  0
   -4.8667    4.6943   10.3715 C   0  0  0  0  0  0
   -2.8937    3.5351    9.5585 C   0  0  0  0  0  0
   -2.4118    4.7326    9.0306 C   0  0  0  0  0  0
   -4.3773    5.8894    9.8414 C   0  0  0  0  0  0
   -2.5293    8.1399    9.6028 F   0  0  0  0  0  0
   -3.5522    7.7198    7.7197 F   0  0  0  0  0  0
   -1.4621    7.1529    7.9754 F   0  0  0  0  0  0
   -5.4700    4.9486   14.9898 C   0  0  0  0  0  0
   -6.3198    3.8712   14.7502 C   0  0  0  0  0  0
   -5.8987    2.8473   13.9040 C   0  0  0  0  0  0
   -3.3711    6.0609   14.6152 C   0  0  0  0  0  0
   -5.8678    6.0040   15.8404 C   0  0  0  0  0  0
   -3.7595    7.1057   15.4572 C   0  0  0  0  0  0
   -5.0078    7.0773   16.0706 C   0  0  0  0  0  0
   -3.4565    1.2907   12.7370 H   0  0  0  0  0  0
  1  2  1  0  0  0
  1  6  1  0  0  0
  1  7  2  0  0  0
  1  8  2  0  0  0
  2  5  1  0  0  0
  2 25  1  0  0  0
  3  9  1  0  0  0
  3 15  1  0  0  0
  3 16  1  0  0  0
  3 17  1  0  0  0
  4  5  1  0  0  0
  4 10  2  0  0  0
  5 20  2  0  0  0
  6 11  1  0  0  0
  6 12  2  0  0  0
  9 13  2  0  0  0
  9 14  1  0  0  0
 10 18  1  0  0  0
 10 21  1  0  0  0
 11 14  2  0  0  0
 12 13  1  0  0  0
 18 19  2  0  0  0
 18 22  1  0  0  0
 19 20  1  0  0  0
 21 23  2  0  0  0
 22 24  2  0  0  0
 23 24  1  0  0  0
M  END
>  <$CLUSTER>
861

>  <CHROM.0>
-0.83762765,171.36544911,-52.42273183

>  <CHROM.1>
-4.11675027,4.71936587,11.57482336,2.74642575,1.18077088,0.77796381

>  <INDEX>
551739

>  <Name>
Maybridge HTS 06299

>  <RI>
-2.07807e+09

>  <Rbt.Current_Directory>
/aloy/home/acomajuncosa/PocketVec_v2/GitLab_repo

>  <Rbt.Executable>
rbdock ($Id: //depot/dev/client3/rdock/2021.1/src/exe/rbdock.cxx#4 $)

>  <Rbt.Library>
libRbt.so (2021.1, Build901 2021/07/19)

>  <Rbt.Parameter_File>
examples/2_pocketvec/rDock_results/dock.prm

>  <Rbt.Receptor>
examples/2_pocketvec/rDock_results/st_parameters.prm

>  <SCORE>
-13.3911

>  <SCORE.INTER>
-11.3417

>  <SCORE.INTER.CONST>
1

>  <SCORE.INTER.POLAR>
-1.49351

>  <SCORE.INTER.REPUL>
0

>  <SCORE.INTER.ROT>
4

>  <SCORE.INTER.VDW>
-15.6638

>  <SCORE.INTER.norm>
-0.472572

>  <SCORE.INTRA>
-1.00364e-13

>  <SCORE.INTRA.DIHEDRAL>
5.80869e-13

>  <SCORE.INTRA.DIHEDRAL.0>
15.3161

>  <SCORE.INTRA.POLAR>
0

>  <SCORE.INTRA.POLAR.0>
0

>  <SCORE.INTRA.REPUL>
0

>  <SCORE.INTRA.REPUL.0>
0

>  <SCORE.INTRA.VDW>
-3.90799e-13

>  <SCORE.INTRA.VDW.0>
-2.99832

>  <SCORE.INTRA.norm>
-4.18184e-15

>  <SCORE.RESTR>
0

>  <SCORE.RESTR.CAVITY>
0

>  <SCORE.RESTR.norm>
0

>  <SCORE.SYSTEM>
-2.04939

>  <SCORE.SYSTEM.CONST>
0

>  <SCORE.SYSTEM.DIHEDRAL>
0.711253

>  <SCORE.SYSTEM.POLAR>
-0.994987

>  <SCORE.SYSTEM.REPUL>
0.058355

>  <SCORE.SYSTEM.VDW>
0.686162

>  <SCORE.SYSTEM.norm>
-0.0853914

>  <SCORE.heavy>
24

>  <SCORE.norm>
-0.557963

$$$$
InterBioScreen STOCK5S-05837
  rDOCK(R)          3D
libRbt.so/2021.1/901 2021/07/19
 32 35  0  0  0  0  0  0  0  0999 V2000
   -4.9950    3.7098   13.4355 C   0  0  0  0  0  0
   -5.2160    6.1299   13.1320 C   0  0  0  0  0  0
   -4.1833    3.6124   12.2464 C   0  0  0  0  0  0
   -5.4643    4.8834   13.8365 C   0  0  0  0  0  0
   -3.9330    4.8012   11.5456 C   0  0  0  0  0  0
   -4.4474    6.0360   11.9836 O   0  0  0  0  0  0
   -2.6268    3.6075    9.9158 C   0  0  0  0  0  0
   -3.1604    4.8064   10.3856 C   0  0  0  0  0  0
   -3.6422    2.4181   11.7695 C   0  0  0  0  0  0
   -2.8180    5.1346    7.2507 C   0  0  0  0  0  0
   -1.8344    3.5056    8.7564 O   0  0  0  0  0  0
   -2.8667    2.4168   10.6058 C   0  0  0  0  0  0
   -8.6176    8.9311    8.5687 C   0  0  0  0  0  0
   -2.7332    6.3855    6.7096 N   0  0  0  0  0  0
   -1.5803    4.7203    8.0408 C   0  0  0  0  0  0
   -5.6606    7.2034   13.5287 O   0  0  0  0  0  0
   -7.5922    8.2010    7.7047 C   0  0  0  0  0  0
   -3.8079    4.4051    7.1448 O   0  0  0  0  0  0
   -8.5416   10.1633    8.6803 O   0  0  0  0  0  0
   -6.8755    9.1804    6.7668 C   0  0  0  0  0  0
   -6.5825    7.4458    8.5799 C   0  0  0  0  0  0
   -2.2276    0.9013   10.0672 Cl  0  0  0  0  0  0
   -5.3969    2.6076   14.3371 C   0  0  0  0  0  0
   -3.7685    7.0113    5.9250 C   0  0  0  0  0  0
   -9.4293    8.1184    9.1692 O   0  5  0  0  0  0
   -6.2604    4.7769   15.0791 C   0  0  0  0  0  0
   -5.8098    8.4719    5.9329 C   0  0  0  0  0  0
   -5.5354    6.7611    7.7423 C   0  0  0  0  0  0
   -4.7803    7.7163    6.8072 C   0  0  0  0  0  0
   -6.4744    3.2681   15.1985 C   0  0  0  0  0  0
   -0.4006    4.4983    7.1325 C   0  0  0  0  0  0
   -1.8846    6.9098    6.8702 H   0  0  0  0  0  0
  1  3  1  0  0  0
  1  4  2  0  0  0
  1 23  1  0  0  0
  2  4  1  0  0  0
  2  6  1  0  0  0
  2 16  2  0  0  0
  3  5  1  0  0  0
  3  9  2  0  0  0
  4 26  1  0  0  0
  5  6  1  0  0  0
  5  8  2  0  0  0
  7  8  1  0  0  0
  7 11  1  0  0  0
  7 12  2  0  0  0
  9 12  1  0  0  0
 10 14  1  0  0  0
 10 15  1  0  0  0
 10 18  2  0  0  0
 11 15  1  0  0  0
 12 22  1  0  0  0
 13 17  1  0  0  0
 13 19  2  0  0  0
 13 25  1  0  0  0
 14 24  1  0  0  0
 14 32  1  0  0  0
 15 31  1  0  0  0
 17 20  1  0  0  0
 17 21  1  0  0  0
 20 27  1  0  0  0
 21 28  1  0  0  0
 23 30  1  0  0  0
 24 29  1  0  0  0
 26 30  1  0  0  0
 27 29  1  0  0  0
 28 29  1  0  0  0
M  END
>  <$CLUSTER>
556

>  <CHROM.0>
179.11533997,172.61078092,73.39606282

>  <CHROM.1>
-4.65221782,5.37799924,9.88755407,1.04408460,-0.72323086,2.06477477

>  <INDEX>
365065

>  <Name>
InterBioScreen STOCK5S-05837

>  <RI>
-2.07807e+09

>  <Rbt.Current_Directory>
/aloy/home/acomajuncosa/PocketVec_v2/GitLab_repo

>  <Rbt.Executable>
rbdock ($Id: //depot/dev/client3/rdock/2021.1/src/exe/rbdock.cxx#4 $)

>  <Rbt.Library>
libRbt.so (2021.1, Build901 2021/07/19)

>  <Rbt.Parameter_File>
examples/2_pocketvec/rDock_results/dock.prm

>  <Rbt.Receptor>
examples/2_pocketvec/rDock_results/st_parameters.prm

>  <SCORE>
-13.1168

>  <SCORE.INTER>
-7.66544

>  <SCORE.INTER.CONST>
1

>  <SCORE.INTER.POLAR>
-0.72111

>  <SCORE.INTER.REPUL>
0

>  <SCORE.INTER.ROT>
6

>  <SCORE.INTER.VDW>
-16.6137

>  <SCORE.INTER.norm>
-0.247272

>  <SCORE.INTRA>
-4.7623e-12

>  <SCORE.INTRA.DIHEDRAL>
-1.78346e-12

>  <SCORE.INTRA.DIHEDRAL.0>
4.30279

>  <SCORE.INTRA.POLAR>
0

>  <SCORE.INTRA.POLAR.0>
0

>  <SCORE.INTRA.REPUL>
0

>  <SCORE.INTRA.REPUL.0>
0

>  <SCORE.INTRA.VDW>
-3.87057e-12

>  <SCORE.INTRA.VDW.0>
-0.891276

>  <SCORE.INTRA.norm>
-1.53623e-13

>  <SCORE.RESTR>
0

>  <SCORE.RESTR.CAVITY>
0

>  <SCORE.RESTR.norm>
0

>  <SCORE.SYSTEM>
-5.45132

>  <SCORE.SYSTEM.CONST>
0

>  <SCORE.SYSTEM.DIHEDRAL>
1.1835

>  <SCORE.SYSTEM.POLAR>
-1.74174

>  <SCORE.SYSTEM.VDW>
-0.121151

>  <SCORE.SYSTEM.norm>
-0.175849

>  <SCORE.heavy>
31

>  <SCORE.norm>
-0.423121

$$$$
Life Chemicals F1608-0478
  rDOCK(R)          3D
libRbt.so/2021.1/901 2021/07/19
 30 33  0  0  0  0  0  0  0  0999 V2000
   -2.3763    3.8890   11.6503 C   0  0  0  0  0  0
   -3.1775    2.9369   12.3037 C   0  0  0  0  0  0
   -3.2904    1.6457   11.7032 C   0  0  0  0  0  0
   -2.1987    5.2611   12.1496 C   0  0  0  0  0  0
   -3.8146    3.2332   13.5017 N   0  0  0  0  0  0
   -1.7133    3.5719   10.4720 C   0  0  0  0  0  0
   -1.8539    2.3581    9.9346 N   0  3  0  0  0  0
   -2.6063    1.3897   10.4869 C   0  0  0  0  0  0
   -5.0702    2.7465   16.0540 N   0  3  0  0  0  0
   -4.0236    0.5681   12.2538 C   0  0  0  0  0  0
   -1.0809    5.5922   12.5304 O   0  0  0  0  0  0
   -3.0283    3.4855   14.6954 C   0  0  0  0  0  0
   -5.2619    3.3208   13.5640 C   0  0  0  0  0  0
   -3.3228    6.2219   12.1783 C   0  0  0  0  0  0
   -2.6841    0.1403    9.8538 C   0  0  0  0  0  0
   -5.7965    2.4460   14.7545 C   0  0  0  0  0  0
   -3.5674    2.6101   15.8822 C   0  0  0  0  0  0
   -4.0964   -0.6760   11.6195 C   0  0  0  0  0  0
   -3.4316   -0.8880   10.4176 C   0  0  0  0  0  0
   -4.8675   -1.6055   12.2880 O   0  0  0  0  0  0
   -5.5873    1.9265   17.1947 C   0  0  0  0  0  0
   -4.4460    6.0568   11.3637 C   0  0  0  0  0  0
   -3.2369    7.3283   13.0301 C   0  0  0  0  0  0
   -4.9735   -2.8906   11.6866 C   0  0  0  0  0  0
   -6.9887    2.3418   17.6139 C   0  0  0  0  0  0
   -5.4861    6.9883   11.4148 C   0  0  0  0  0  0
   -4.2794    8.2556   13.0769 C   0  0  0  0  0  0
   -5.4034    8.0849   12.2717 C   0  0  0  0  0  0
   -1.3712    2.1572    9.0706 H   0  0  0  0  0  0
   -5.2617    3.7088   16.2920 H   0  0  0  0  0  0
  1  2  2  0  0  0
  1  4  1  0  0  0
  1  6  1  0  0  0
  2  3  1  0  0  0
  2  5  1  0  0  0
  3  8  2  0  0  0
  3 10  1  0  0  0
  4 11  2  0  0  0
  4 14  1  0  0  0
  5 12  1  0  0  0
  5 13  1  0  0  0
  6  7  2  0  0  0
  7  8  1  0  0  0
  7 29  1  0  0  0
  8 15  1  0  0  0
  9 16  1  0  0  0
  9 17  1  0  0  0
  9 21  1  0  0  0
  9 30  1  0  0  0
 10 18  2  0  0  0
 12 17  1  0  0  0
 13 16  1  0  0  0
 14 22  2  0  0  0
 14 23  1  0  0  0
 15 19  2  0  0  0
 18 19  1  0  0  0
 18 20  1  0  0  0
 20 24  1  0  0  0
 21 25  1  0  0  0
 22 26  1  0  0  0
 23 27  2  0  0  0
 26 28  2  0  0  0
 27 28  1  0  0  0
M  END
>  <$CLUSTER>
447

>  <CHROM.0>
177.35871417,171.61248374,74.04368237

>  <CHROM.1>
-3.87561454,3.02535933,12.78351400,-1.49708455,-1.06475699,-2.97303185

>  <INDEX>
295573

>  <Name>
Life Chemicals F1608-0478

>  <RI>
-2.07807e+09

>  <Rbt.Current_Directory>
/aloy/home/acomajuncosa/PocketVec_v2/GitLab_repo

>  <Rbt.Executable>
rbdock ($Id: //depot/dev/client3/rdock/2021.1/src/exe/rbdock.cxx#4 $)

>  <Rbt.Library>
libRbt.so (2021.1, Build901 2021/07/19)

>  <Rbt.Parameter_File>
examples/2_pocketvec/rDock_results/dock.prm

>  <Rbt.Receptor>
examples/2_pocketvec/rDock_results/st_parameters.prm

>  <SCORE>
-5.66407

>  <SCORE.INTER>
-0.204969

>  <SCORE.INTER.CONST>
1

>  <SCORE.INTER.POLAR>
0

>  <SCORE.INTER.REPUL>
0.0148245

>  <SCORE.INTER.ROT>
5

>  <SCORE.INTER.VDW>
-10.6791

>  <SCORE.INTER.norm>
-0.00732033

>  <SCORE.INTRA>
-3.93752e-12

>  <SCORE.INTRA.DIHEDRAL>
-1.82609e-12

>  <SCORE.INTRA.DIHEDRAL.0>
23.7389

>  <SCORE.INTRA.POLAR>
0

>  <SCORE.INTRA.POLAR.0>
0

>  <SCORE.INTRA.REPUL>
0

>  <SCORE.INTRA.REPUL.0>
0

>  <SCORE.INTRA.VDW>
-3.02447e-12

>  <SCORE.INTRA.VDW.0>
-0.100003

>  <SCORE.INTRA.norm>
-1.40626e-13

>  <SCORE.RESTR>
0

>  <SCORE.RESTR.CAVITY>
0

>  <SCORE.RESTR.norm>
0

>  <SCORE.SYSTEM>
-5.4591

>  <SCORE.SYSTEM.CONST>
0

>  <SCORE.SYSTEM.DIHEDRAL>
1.34989

>  <SCORE.SYSTEM.POLAR>
-1.74707

>  <SCORE.SYSTEM.VDW>
-0.194006

>  <SCORE.SYSTEM.norm>
-0.194968

>  <SCORE.heavy>
28

>  <SCORE.norm>
-0.202288

$$$$
Chemdiv 1416-0529
  rDOCK(R)          3D
libRbt.so/2021.1/901 2021/07/19
 31 33  0  0  0  0  0  0  0  0999 V2000
   -3.7303    1.2431   13.1844 C   0  0  0  0  0  0
   -3.9365    1.9798   14.3276 C   0  0  0  0  0  0
   -4.2333   -0.0610   13.0664 C   0  0  0  0  0  0
   -3.0411    1.8453   11.9627 C   0  0  0  0  0  0
    2.9073    5.6560   10.4307 C   0  0  0  0  0  0
    2.5703    5.7671    9.0801 C   0  0  0  0  0  0
    2.0428    4.9997   11.3104 C   0  0  0  0  0  0
    0.8441    4.4614   10.8278 C   0  0  0  0  0  0
   -4.9226   -0.6279   14.1418 C   0  0  0  0  0  0
   -1.1915    3.2489   11.3818 N   0  0  0  0  0  0
   -4.6259    1.4117   15.4021 C   0  0  0  0  0  0
   -5.1175    0.1109   15.3087 C   0  0  0  0  0  0
    3.4659    6.4469    8.1677 N   0  0  0  0  0  0
   -1.8970    2.6513   12.3782 N   0  0  0  0  0  0
   -3.4271    1.6531   10.8418 O   0  0  0  0  0  0
    0.5082    4.5714    9.4901 C   0  0  0  0  0  0
    1.3726    5.2266    8.6095 C   0  0  0  0  0  0
   -0.0694    3.7630   11.7891 C   0  0  0  0  0  0
   -4.0324   -0.8001   11.9330 O   0  0  0  0  0  0
    2.3786    4.8906   12.6446 O   0  0  0  0  0  0
    3.1149    6.6788    6.7595 C   0  0  0  0  0  0
    4.7813    6.9456    8.5945 C   0  0  0  0  0  0
   -4.8349    2.1511   16.5969 C   0  0  0  0  0  0
   -5.8236   -0.4531   16.4012 C   0  0  0  0  0  0
    3.5017    5.4863    5.8970 C   0  0  0  0  0  0
    4.6706    8.3483    9.1756 C   0  0  0  0  0  0
   -6.0215    0.2857   17.5685 C   0  0  0  0  0  0
   -5.5288    1.5846   17.6654 C   0  0  0  0  0  0
   -1.6442    2.7589   13.3507 H   0  0  0  0  0  0
   -4.3932   -1.6893   11.9596 H   0  0  0  0  0  0
    1.7362    4.4287   13.1882 H   0  0  0  0  0  0
  1  2  1  0  0  0
  1  3  2  0  0  0
  1  4  1  0  0  0
  2 11  2  0  0  0
  3  9  1  0  0  0
  3 19  1  0  0  0
  4 14  1  0  0  0
  4 15  2  0  0  0
  5  6  1  0  0  0
  5  7  2  0  0  0
  6 13  1  0  0  0
  6 17  2  0  0  0
  7  8  1  0  0  0
  7 20  1  0  0  0
  8 16  2  0  0  0
  8 18  1  0  0  0
  9 12  2  0  0  0
 10 14  1  0  0  0
 10 18  2  0  0  0
 11 12  1  0  0  0
 11 23  1  0  0  0
 12 24  1  0  0  0
 13 21  1  0  0  0
 13 22  1  0  0  0
 14 29  1  0  0  0
 16 17  1  0  0  0
 19 30  1  0  0  0
 20 31  1  0  0  0
 21 25  1  0  0  0
 22 26  1  0  0  0
 23 28  2  0  0  0
 24 27  2  0  0  0
 27 28  1  0  0  0
M  END
>  <$CLUSTER>
631

>  <CHROM.0>
2.88967539,172.89895652,70.12386925

>  <CHROM.1>
-0.98931612,3.23567911,11.87293048,2.72909475,0.72449696,1.29413441

>  <INDEX>
14047

>  <Name>
Chemdiv 1416-0529

>  <RI>
-2.07807e+09

>  <Rbt.Current_Directory>
/aloy/home/acomajuncosa/PocketVec_v2/GitLab_repo

>  <Rbt.Executable>
rbdock ($Id: //depot/dev/client3/rdock/2021.1/src/exe/rbdock.cxx#4 $)

>  <Rbt.Library>
libRbt.so (2021.1, Build901 2021/07/19)

>  <Rbt.Parameter_File>
examples/2_pocketvec/rDock_results/dock.prm

>  <Rbt.Receptor>
examples/2_pocketvec/rDock_results/st_parameters.prm

>  <SCORE>
-10.0593

>  <SCORE.INTER>
-4.50829

>  <SCORE.INTER.CONST>
1

>  <SCORE.INTER.POLAR>
-0.468944

>  <SCORE.INTER.REPUL>
0

>  <SCORE.INTER.ROT>
6

>  <SCORE.INTER.VDW>
-14.3139

>  <SCORE.INTER.norm>
-0.16101

>  <SCORE.INTRA>
-1.25233e-12

>  <SCORE.INTRA.DIHEDRAL>
-1.40155e-12

>  <SCORE.INTRA.DIHEDRAL.0>
10.385

>  <SCORE.INTRA.POLAR>
0

>  <SCORE.INTRA.POLAR.0>
0

>  <SCORE.INTRA.REPUL>
0

>  <SCORE.INTRA.REPUL.0>
0

>  <SCORE.INTRA.VDW>
-5.51559e-13

>  <SCORE.INTRA.VDW.0>
1.49694

>  <SCORE.INTRA.norm>
-4.47261e-14

>  <SCORE.RESTR>
0.00452618

>  <SCORE.RESTR.CAVITY>
0.00452618

>  <SCORE.RESTR.norm>
0.000161649

>  <SCORE.SYSTEM>
-5.55554

>  <SCORE.SYSTEM.CONST>
0

>  <SCORE.SYSTEM.DIHEDRAL>
0.814747

>  <SCORE.SYSTEM.POLAR>
-1.71425

>  <SCORE.SYSTEM.VDW>
-0.134462

>  <SCORE.SYSTEM.norm>
-0.198412

>  <SCORE.heavy>
28

>  <SCORE.norm>
-0.359261

$$$$
Chemical Block A3577/0151844
  rDOCK(R)          3D
libRbt.so/2021.1/901 2021/07/19
 25 27  0  0  0  0  0  0  0  0999 V2000
   -2.4502    9.5554   13.8903 S   0  0  0  0  0  0
   -4.0400    2.9451   13.7686 N   0  0  0  0  0  0
   -4.7986    0.9261   14.9374 C   0  0  0  0  0  0
   -5.4520    1.7378   15.8354 N   0  0  0  0  0  0
   -2.8963    3.5924   13.2888 C   0  0  0  0  0  0
   -4.0884    1.4676   13.7287 C   0  0  0  0  0  0
   -4.9446   -0.3707   15.3942 C   0  0  0  0  0  0
   -6.0229    0.9930   16.8277 C   0  0  0  0  0  0
   -5.7193   -0.3279   16.5804 C   0  0  0  0  0  0
   -5.2389    3.6235   14.2914 C   0  0  0  0  0  0
   -5.5012    3.1837   15.7244 C   0  0  0  0  0  0
   -2.5674    7.8012   13.7143 C   0  0  0  0  0  0
   -0.8255    9.8617   13.6298 N   0  0  0  0  0  0
   -3.1920   10.1778   12.8057 O   0  0  0  0  0  0
   -2.7485    9.9067   15.2669 O   0  0  0  0  0  0
   -2.8056    5.0501   13.4447 C   0  0  0  0  0  0
   -1.9415    3.0420   12.7473 O   0  0  0  0  0  0
   -2.8096    7.2433   12.4564 C   0  0  0  0  0  0
   -2.4341    6.9790   14.8346 C   0  0  0  0  0  0
   -2.9237    5.8611   12.3151 C   0  0  0  0  0  0
   -2.5471    5.5959   14.7027 C   0  0  0  0  0  0
   -4.7434    0.9878   12.4314 C   0  0  0  0  0  0
   -6.7675    1.5168   17.8790 C   0  0  0  0  0  0
    0.1418    9.3961   14.6595 C   0  0  0  0  0  0
   -0.2914    9.6627   12.2560 C   0  0  0  0  0  0
  1 12  1  0  0  0
  1 13  1  0  0  0
  1 14  2  0  0  0
  1 15  2  0  0  0
  2  5  1  0  0  0
  2  6  1  0  0  0
  2 10  1  0  0  0
  3  4  1  0  0  0
  3  6  1  0  0  0
  3  7  2  0  0  0
  4  8  1  0  0  0
  4 11  1  0  0  0
  5 16  1  0  0  0
  5 17  2  0  0  0
  6 22  1  0  0  0
  7  9  1  0  0  0
  8  9  2  0  0  0
  8 23  1  0  0  0
 10 11  1  0  0  0
 12 18  2  0  0  0
 12 19  1  0  0  0
 13 24  1  0  0  0
 13 25  1  0  0  0
 16 20  2  0  0  0
 16 21  1  0  0  0
 18 20  1  0  0  0
 19 21  2  0  0  0
M  END
>  <$CLUSTER>
182

>  <CHROM.0>
178.38937796,172.87891907,73.78408272

>  <CHROM.1>
-3.41944271,5.15867866,14.26106816,0.83676168,0.95921725,0.42411085

>  <INDEX>
116660

>  <Name>
Chemical Block A3577/0151844

>  <RI>
-2.07807e+09

>  <Rbt.Current_Directory>
/aloy/home/acomajuncosa/PocketVec_v2/GitLab_repo

>  <Rbt.Executable>
rbdock ($Id: //depot/dev/client3/rdock/2021.1/src/exe/rbdock.cxx#4 $)

>  <Rbt.Library>
libRbt.so (2021.1, Build901 2021/07/19)

>  <Rbt.Parameter_File>
examples/2_pocketvec/rDock_results/dock.prm

>  <Rbt.Receptor>
examples/2_pocketvec/rDock_results/st_parameters.prm

>  <SCORE>
-16.0318

>  <SCORE.INTER>
-10.5781

>  <SCORE.INTER.CONST>
1

>  <SCORE.INTER.POLAR>
0

>  <SCORE.INTER.REPUL>
0

>  <SCORE.INTER.ROT>
3

>  <SCORE.INTER.VDW>
-18.9781

>  <SCORE.INTER.norm>
-0.423124

>  <SCORE.INTRA>
1.05871e-12

>  <SCORE.INTRA.DIHEDRAL>
4.83169e-13

>  <SCORE.INTRA.DIHEDRAL.0>
13.0624

>  <SCORE.INTRA.POLAR>
0

>  <SCORE.INTRA.POLAR.0>
0

>  <SCORE.INTRA.REPUL>
0

>  <SCORE.INTRA.REPUL.0>
0

>  <SCORE.INTRA.VDW>
8.17124e-13

>  <SCORE.INTRA.VDW.0>
-1.87925

>  <SCORE.INTRA.norm>
4.23483e-14

>  <SCORE.RESTR>
0

>  <SCORE.RESTR.CAVITY>
0

>  <SCORE.RESTR.norm>
0

>  <SCORE.SYSTEM>
-5.45372

>  <SCORE.SYSTEM.CONST>
0

>  <SCORE.SYSTEM.DIHEDRAL>
1.21636

>  <SCORE.SYSTEM.POLAR>
-1.74494

>  <SCORE.SYSTEM.VDW>
-0.129108

>  <SCORE.SYSTEM.norm>
-0.218149

>  <SCORE.heavy>
25

>  <SCORE.norm>
-0.641272

$$$$
Comgenex CGX-0740668
  rDOCK(R)          3D
libRbt.so/2021.1/901 2021/07/19
 31 34  0  0  0  0  0  0  0  0999 V2000
   -2.5523    3.4650   12.0688 C   0  0  0  0  0  0
   -3.8711    3.9067   12.6528 C   0  0  0  0  0  0
   -2.3902    2.2287   11.4433 C   0  0  0  0  0  0
    0.9761    6.0616   12.7764 C   0  0  0  0  0  0
   -4.3982    3.1244   13.5767 N   0  0  0  0  0  0
   -3.4208    1.3617   11.1010 N   0  0  0  0  0  0
   -1.5021    4.3500   12.3267 C   0  0  0  0  0  0
    0.9282    4.8002   12.1920 N   0  0  0  0  0  0
    2.2753    6.5447   12.8193 N   0  0  0  0  0  0
   -1.0580    1.8943   11.1157 C   0  0  0  0  0  0
   -4.3874    4.9534   12.2522 O   0  0  0  0  0  0
   -0.2094    3.9900   11.9647 C   0  0  0  0  0  0
    0.0348    6.7160   13.2173 O   0  0  0  0  0  0
    2.8034    7.7595   13.3135 C   0  0  0  0  0  0
    2.0034    8.7505   13.8925 C   0  0  0  0  0  0
    0.0147    2.7569   11.3687 C   0  0  0  0  0  0
    2.5790    9.9337   14.3657 C   0  0  0  0  0  0
    1.8753   10.9214   14.9277 F   0  0  0  0  0  0
   -3.9175    1.8714   14.1510 C   0  0  0  0  0  0
   -5.6641    3.3803   14.2584 C   0  0  0  0  0  0
   -3.2301   -0.0779   11.2022 C   0  0  0  0  0  0
   -4.6945    1.8459   10.5899 C   0  0  0  0  0  0
    4.7583    9.1594   13.6935 C   0  0  0  0  0  0
    4.1873    7.9770   13.2202 C   0  0  0  0  0  0
    3.9529   10.1393   14.2667 C   0  0  0  0  0  0
   -5.3884    2.9915   15.6996 C   0  0  0  0  0  0
   -5.5952    0.7494   11.2827 C   0  0  0  0  0  0
   -4.7023   -0.4231   11.6549 C   0  0  0  0  0  0
   -4.2393    1.9979   15.6286 C   0  0  0  0  0  0
    1.8125    4.4158   11.8937 H   0  0  0  0  0  0
    2.9657    5.9192   12.4286 H   0  0  0  0  0  0
  1  2  1  0  0  0
  1  3  2  0  0  0
  1  7  1  0  0  0
  2  5  1  0  0  0
  2 11  2  0  0  0
  3  6  1  0  0  0
  3 10  1  0  0  0
  4  8  1  0  0  0
  4  9  1  0  0  0
  4 13  2  0  0  0
  5 19  1  0  0  0
  5 20  1  0  0  0
  6 21  1  0  0  0
  6 22  1  0  0  0
  7 12  2  0  0  0
  8 12  1  0  0  0
  8 30  1  0  0  0
  9 14  1  0  0  0
  9 31  1  0  0  0
 10 16  2  0  0  0
 12 16  1  0  0  0
 14 15  2  0  0  0
 14 24  1  0  0  0
 15 17  1  0  0  0
 17 18  1  0  0  0
 17 25  2  0  0  0
 19 29  1  0  0  0
 20 26  1  0  0  0
 21 28  1  0  0  0
 22 27  1  0  0  0
 23 24  2  0  0  0
 23 25  1  0  0  0
 26 29  1  0  0  0
 27 28  1  0  0  0
M  END
>  <$CLUSTER>
386

>  <CHROM.0>
-0.94691896,171.67651886,75.65853722

>  <CHROM.1>
-1.23599502,4.62623382,12.89177658,-2.44936639,0.42735848,0.65178702

>  <INDEX>
240716

>  <Name>
Comgenex CGX-0740668

>  <RI>
-2.07807e+09

>  <Rbt.Current_Directory>
/aloy/home/acomajuncosa/PocketVec_v2/GitLab_repo

>  <Rbt.Executable>
rbdock ($Id: //depot/dev/client3/rdock/2021.1/src/exe/rbdock.cxx#4 $)

>  <Rbt.Library>
libRbt.so (2021.1, Build901 2021/07/19)

>  <Rbt.Parameter_File>
examples/2_pocketvec/rDock_results/dock.prm

>  <Rbt.Receptor>
examples/2_pocketvec/rDock_results/st_parameters.prm

>  <SCORE>
-14.2632

>  <SCORE.INTER>
-8.67504

>  <SCORE.INTER.CONST>
1

>  <SCORE.INTER.POLAR>
0

>  <SCORE.INTER.REPUL>
0

>  <SCORE.INTER.ROT>
4

>  <SCORE.INTER.VDW>
-18.075

>  <SCORE.INTER.norm>
-0.299139

>  <SCORE.INTRA>
1.88738e-12

>  <SCORE.INTRA.DIHEDRAL>
8.13571e-13

>  <SCORE.INTRA.DIHEDRAL.0>
14.6043

>  <SCORE.INTRA.POLAR>
0

>  <SCORE.INTRA.POLAR.0>
0

>  <SCORE.INTRA.REPUL>
0

>  <SCORE.INTRA.REPUL.0>
0

>  <SCORE.INTRA.VDW>
1.48059e-12

>  <SCORE.INTRA.VDW.0>
-2.25519

>  <SCORE.INTRA.norm>
6.5082e-14

>  <SCORE.RESTR>
0

>  <SCORE.RESTR.CAVITY>
0

>  <SCORE.RESTR.norm>
0

>  <SCORE.SYSTEM>
-5.58819

>  <SCORE.SYSTEM.CONST>
0

>  <SCORE.SYSTEM.DIHEDRAL>
1.54506

>  <SCORE.SYSTEM.POLAR>
-1.76019

>  <SCORE.SYSTEM.VDW>
-0.376076

>  <SCORE.SYSTEM.norm>
-0.192696

>  <SCORE.heavy>
29

>  <SCORE.norm>
-0.491836

$$$$
Asinex ASN 06745065
  rDOCK(R)          3D
libRbt.so/2021.1/901 2021/07/19
 23 25  0  0  0  0  0  0  0  0999 V2000
   -3.9733    2.5673   13.6393 C   0  0  0  0  0  0
   -3.9361    2.8780   14.9656 N   0  0  0  0  0  0
   -4.3571    3.7494   13.0315 C   0  0  0  0  0  0
   -4.2724    4.1658   15.1761 N   0  0  0  0  0  0
   -4.5327    4.7123   13.9912 N   0  0  0  0  0  0
   -3.7080    1.3963   13.0434 N   0  0  0  0  0  0
   -4.4925    3.7659   11.6335 C   0  0  0  0  0  0
   -4.2290    2.5892   10.9851 N   0  0  0  0  0  0
   -3.8624    1.5038   11.7093 C   0  0  0  0  0  0
   -3.5945    2.0184   16.0758 C   0  0  0  0  0  0
   -4.8717    4.9155   10.9648 N   0  0  0  0  0  0
   -4.8162    1.3518   16.6824 C   0  0  0  0  0  0
   -3.5804    0.2182   10.9119 C   0  0  0  0  0  0
   -5.0103    4.9258    9.5244 C   0  0  0  0  0  0
   -5.1556    0.0348   16.3405 C   0  0  0  0  0  0
   -5.6379    2.0562   17.5761 C   0  0  0  0  0  0
   -5.4356    6.3070    9.0533 C   0  0  0  0  0  0
   -5.6030    6.3504    7.5324 C   0  0  0  0  0  0
   -6.0285    7.7321    7.0589 C   0  0  0  0  0  0
   -6.2834   -0.5742   16.8999 C   0  0  0  0  0  0
   -6.7645    1.4465   18.1352 C   0  0  0  0  0  0
   -7.0847    0.1308   17.7988 C   0  0  0  0  0  0
   -5.0545    5.7596   11.4890 H   0  0  0  0  0  0
  1  2  1  0  0  0
  1  3  2  0  0  0
  1  6  1  0  0  0
  2  4  1  0  0  0
  2 10  1  0  0  0
  3  5  1  0  0  0
  3  7  1  0  0  0
  4  5  2  0  0  0
  6  9  2  0  0  0
  7  8  2  0  0  0
  7 11  1  0  0  0
  8  9  1  0  0  0
  9 13  1  0  0  0
 10 12  1  0  0  0
 11 14  1  0  0  0
 11 23  1  0  0  0
 12 15  2  0  0  0
 12 16  1  0  0  0
 14 17  1  0  0  0
 15 20  1  0  0  0
 16 21  2  0  0  0
 17 18  1  0  0  0
 18 19  1  0  0  0
 20 22  2  0  0  0
 21 22  1  0  0  0
M  END
>  <$CLUSTER>
270

>  <CHROM.0>
176.22413440,172.24741976,73.75093612

>  <CHROM.1>
-4.87170120,2.98711790,13.20045727,-1.65021759,1.17668956,-0.96102865

>  <INDEX>
163325

>  <Name>
Asinex ASN 06745065

>  <RI>
-2.07807e+09

>  <Rbt.Current_Directory>
/aloy/home/acomajuncosa/PocketVec_v2/GitLab_repo

>  <Rbt.Executable>
rbdock ($Id: //depot/dev/client3/rdock/2021.1/src/exe/rbdock.cxx#4 $)

>  <Rbt.Library>
libRbt.so (2021.1, Build901 2021/07/19)

>  <Rbt.Parameter_File>
examples/2_pocketvec/rDock_results/dock.prm

>  <Rbt.Receptor>
examples/2_pocketvec/rDock_results/st_parameters.prm

>  <SCORE>
-15.251

>  <SCORE.INTER>
-9.79348

>  <SCORE.INTER.CONST>
1

>  <SCORE.INTER.POLAR>
0

>  <SCORE.INTER.REPUL>
0

>  <SCORE.INTER.ROT>
6

>  <SCORE.INTER.VDW>
-21.1935

>  <SCORE.INTER.norm>
-0.445158

>  <SCORE.INTRA>
-2.23821e-13

>  <SCORE.INTRA.DIHEDRAL>
-1.00364e-12

>  <SCORE.INTRA.DIHEDRAL.0>
5.53769

>  <SCORE.INTRA.POLAR>
0

>  <SCORE.INTRA.POLAR.0>
0

>  <SCORE.INTRA.REPUL>
0

>  <SCORE.INTRA.REPUL.0>
0

>  <SCORE.INTRA.VDW>
2.78e-13

>  <SCORE.INTRA.VDW.0>
-1.266

>  <SCORE.INTRA.norm>
-1.01737e-14

>  <SCORE.RESTR>
0

>  <SCORE.RESTR.CAVITY>
0

>  <SCORE.RESTR.norm>
0

>  <SCORE.SYSTEM>
-5.4575

>  <SCORE.SYSTEM.CONST>
0

>  <SCORE.SYSTEM.DIHEDRAL>
1.27761

>  <SCORE.SYSTEM.POLAR>
-1.74467

>  <SCORE.SYSTEM.VDW>
-0.164439

>  <SCORE.SYSTEM.norm>
-0.248068

>  <SCORE.heavy>
22

>  <SCORE.norm>
-0.693226

$$$$
Life Chemicals F0497-0082
  rDOCK(R)          3D
libRbt.so/2021.1/901 2021/07/19
 32 35  0  0  0  0  0  0  0  0999 V2000
   -1.9501    8.2478    9.6103 C   0  0  0  0  0  0
   -4.5850    8.6233    8.6836 C   0  0  0  0  0  0
   -4.0885    9.4741    9.6350 N   0  0  0  0  0  0
   -2.7586    9.3771   10.2458 C   0  0  0  0  0  0
   -2.4753    7.4471    8.6531 C   0  0  0  0  0  0
   -0.5498    8.1147   10.0681 C   0  0  0  0  0  0
   -3.7889    7.6318    8.2266 N   0  0  0  0  0  0
   -5.8116    8.9837    8.3828 N   0  0  0  0  0  0
   -2.8855    9.2290   11.7536 C   0  0  0  0  0  0
   -4.9725   10.4371    9.9473 N   0  0  0  0  0  0
   -6.0021   10.0866    9.1703 C   0  0  0  0  0  0
   -0.2840    6.9258   10.7086 N   0  0  0  0  0  0
   -2.3199   10.1955   12.5990 C   0  0  0  0  0  0
   -2.4171   10.0709   13.9857 C   0  0  0  0  0  0
    0.2587    9.0235    9.9225 O   0  0  0  0  0  0
   -3.5468    8.1315   12.3317 C   0  0  0  0  0  0
   -3.0772    8.9787   14.5449 C   0  0  0  0  0  0
   -3.6420    8.0099   13.7192 C   0  0  0  0  0  0
    0.9058    6.4423   11.2779 C   0  0  0  0  0  0
   -1.7256    6.3544    7.9390 C   0  0  0  0  0  0
   -1.8875   10.9824   14.8781 O   0  0  0  0  0  0
    3.2156    5.3612   12.4592 C   0  0  0  0  0  0
    2.0973    7.1734   11.3034 C   0  0  0  0  0  0
    0.8873    5.1619   11.8526 C   0  0  0  0  0  0
   -3.1207    8.9404   15.9227 O   0  0  0  0  0  0
    2.0347    4.6250   12.4394 C   0  0  0  0  0  0
    3.2463    6.6324   11.8915 C   0  0  0  0  0  0
    4.4440    4.7883   13.0855 C   0  0  0  0  0  0
   -1.2053   12.1107   14.3414 C   0  0  0  0  0  0
   -3.7867    7.8398   16.5272 C   0  0  0  0  0  0
   -4.1654    6.9923    7.5413 H   0  0  0  0  0  0
   -1.0726    6.2986   10.7812 H   0  0  0  0  0  0
  1  4  1  0  0  0
  1  5  2  0  0  0
  1  6  1  0  0  0
  2  3  1  0  0  0
  2  7  1  0  0  0
  2  8  2  0  0  0
  3  4  1  0  0  0
  3 10  1  0  0  0
  4  9  1  0  0  0
  5  7  1  0  0  0
  5 20  1  0  0  0
  6 12  1  0  0  0
  6 15  2  0  0  0
  7 31  1  0  0  0
  8 11  1  0  0  0
  9 13  2  0  0  0
  9 16  1  0  0  0
 10 11  2  0  0  0
 12 19  1  0  0  0
 12 32  1  0  0  0
 13 14  1  0  0  0
 14 17  2  0  0  0
 14 21  1  0  0  0
 16 18  2  0  0  0
 17 18  1  0  0  0
 17 25  1  0  0  0
 19 23  1  0  0  0
 19 24  2  0  0  0
 21 29  1  0  0  0
 22 26  2  0  0  0
 22 27  1  0  0  0
 22 28  1  0  0  0
 23 27  2  0  0  0
 24 26  1  0  0  0
 25 30  1  0  0  0
M  END
>  <$CLUSTER>
737

>  <CHROM.0>
171.23841534,170.80357769,73.24652935

>  <CHROM.1>
-1.66979861,8.20564891,11.57923892,-3.06406600,-0.52047045,1.29161099

>  <INDEX>
271154

>  <Name>
Life Chemicals F0497-0082

>  <RI>
-2.07807e+09

>  <Rbt.Current_Directory>
/aloy/home/acomajuncosa/PocketVec_v2/GitLab_repo

>  <Rbt.Executable>
rbdock ($Id: //depot/dev/client3/rdock/2021.1/src/exe/rbdock.cxx#4 $)

>  <Rbt.Library>
libRbt.so (2021.1, Build901 2021/07/19)

>  <Rbt.Parameter_File>
examples/2_pocketvec/rDock_results/dock.prm

>  <Rbt.Receptor>
examples/2_pocketvec/rDock_results/st_parameters.prm

>  <SCORE>
-4.99532

>  <SCORE.INTER>
0.459965

>  <SCORE.INTER.CONST>
1

>  <SCORE.INTER.POLAR>
0

>  <SCORE.INTER.REPUL>
0.000107992

>  <SCORE.INTER.ROT>
5

>  <SCORE.INTER.VDW>
-9.94057

>  <SCORE.INTER.norm>
0.0153322

>  <SCORE.INTRA>
7.51843e-13

>  <SCORE.INTRA.DIHEDRAL>
4.3876e-13

>  <SCORE.INTRA.DIHEDRAL.0>
9.75028

>  <SCORE.INTRA.POLAR>
0

>  <SCORE.INTRA.POLAR.0>
0

>  <SCORE.INTRA.REPUL>
-3.4861e-14

>  <SCORE.INTRA.REPUL.0>
0.0193329

>  <SCORE.INTRA.VDW>
7.06768e-13

>  <SCORE.INTRA.VDW.0>
1.45409

>  <SCORE.INTRA.norm>
2.50614e-14

>  <SCORE.RESTR>
0

>  <SCORE.RESTR.CAVITY>
0

>  <SCORE.RESTR.norm>
0

>  <SCORE.SYSTEM>
-5.45528

>  <SCORE.SYSTEM.CONST>
0

>  <SCORE.SYSTEM.DIHEDRAL>
1.4305

>  <SCORE.SYSTEM.POLAR>
-1.7405

>  <SCORE.SYSTEM.VDW>
-0.252824

>  <SCORE.SYSTEM.norm>
-0.181843

>  <SCORE.heavy>
30

>  <SCORE.norm>
-0.166511

$$$$
InnovaPharm STT-00192300
  rDOCK(R)          3D
libRbt.so/2021.1/901 2021/07/19
 29 31  0  0  0  0  0  0  0  0999 V2000
   -3.0896    4.0031   11.3693 C   0  0  0  0  0  0
   -2.6970    4.8679   12.4189 C   0  0  0  0  0  0
   -3.9569    2.9371   11.6716 C   0  0  0  0  0  0
   -2.6062    4.2179    9.9893 C   0  0  0  0  0  0
   -4.3953    2.7891   12.9793 C   0  0  0  0  0  0
   -4.0454    3.6074   13.9926 N   0  0  0  0  0  0
   -3.2035    5.1547    9.1279 C   0  0  0  0  0  0
   -3.2152    4.6365   13.7010 C   0  0  0  0  0  0
   -2.6804    5.3775    7.8441 C   0  0  0  0  0  0
   -4.4086    2.0067   10.6802 C   0  0  0  0  0  0
   -4.7754    1.2544    9.8766 N   0  0  0  0  0  0
   -1.7924    6.0514   12.1694 C   0  0  0  0  0  0
   -1.5204    3.4706    9.5034 C   0  0  0  0  0  0
   -1.2462    6.7030   13.4237 N   0  3  0  0  0  0
   -2.8217    5.5018   14.8682 C   0  0  0  0  0  0
   -1.6125    4.6082    7.3619 C   0  0  0  0  0  0
   -1.0355    3.6550    8.2039 C   0  0  0  0  0  0
   -5.2576    1.7334   13.2972 N   0  0  0  0  0  0
   -2.3279    6.8801   14.4552 C   0  0  0  0  0  0
   -4.2592    5.8985    9.5989 O   0  0  0  0  0  0
   -3.2455    6.3235    7.0241 O   0  0  0  0  0  0
   -1.2121    4.8720    6.0779 O   0  0  0  0  0  0
   -0.5246    7.9855   13.1234 C   0  0  0  0  0  0
   -2.6627    7.6036    7.2726 C   0  0  0  0  0  0
   -5.4879    5.4915    8.9960 C   0  0  0  0  0  0
   -0.1457    4.0886    5.5556 C   0  0  0  0  0  0
   -0.5565    6.0793   13.8187 H   0  0  0  0  0  0
   -5.5841    1.6166   14.2457 H   0  0  0  0  0  0
   -5.5534    1.0882   12.5782 H   0  0  0  0  0  0
  1  2  1  0  0  0
  1  3  2  0  0  0
  1  4  1  0  0  0
  2  8  2  0  0  0
  2 12  1  0  0  0
  3  5  1  0  0  0
  3 10  1  0  0  0
  4  7  2  0  0  0
  4 13  1  0  0  0
  5  6  2  0  0  0
  5 18  1  0  0  0
  6  8  1  0  0  0
  7  9  1  0  0  0
  7 20  1  0  0  0
  8 15  1  0  0  0
  9 16  2  0  0  0
  9 21  1  0  0  0
 10 11  3  0  0  0
 12 14  1  0  0  0
 13 17  2  0  0  0
 14 19  1  0  0  0
 14 23  1  0  0  0
 14 27  1  0  0  0
 15 19  1  0  0  0
 16 17  1  0  0  0
 16 22  1  0  0  0
 18 28  1  0  0  0
 18 29  1  0  0  0
 20 25  1  0  0  0
 21 24  1  0  0  0
 22 26  1  0  0  0
M  END
>  <$CLUSTER>
607

>  <CHROM.0>
-0.44301377,171.78426294,74.82196305

>  <CHROM.1>
-2.84707159,4.74369879,10.51623313,1.91276693,0.98719641,1.35230133

>  <INDEX>
401219

>  <Name>
InnovaPharm STT-00192300

>  <RI>
-2.07807e+09

>  <Rbt.Current_Directory>
/aloy/home/acomajuncosa/PocketVec_v2/GitLab_repo

>  <Rbt.Executable>
rbdock ($Id: //depot/dev/client3/rdock/2021.1/src/exe/rbdock.cxx#4 $)

>  <Rbt.Library>
libRbt.so (2021.1, Build901 2021/07/19)

>  <Rbt.Parameter_File>
examples/2_pocketvec/rDock_results/dock.prm

>  <Rbt.Receptor>
examples/2_pocketvec/rDock_results/st_parameters.prm

>  <SCORE>
-13.5097

>  <SCORE.INTER>
-7.91667

>  <SCORE.INTER.CONST>
1

>  <SCORE.INTER.POLAR>
-1.23882

>  <SCORE.INTER.REPUL>
0

>  <SCORE.INTER.ROT>
4

>  <SCORE.INTER.VDW>
-13.1047

>  <SCORE.INTER.norm>
-0.304487

>  <SCORE.INTRA>
1.15062e-12

>  <SCORE.INTRA.DIHEDRAL>
2.94875e-13

>  <SCORE.INTRA.DIHEDRAL.0>
13.8722

>  <SCORE.INTRA.POLAR>
0

>  <SCORE.INTRA.POLAR.0>
0

>  <SCORE.INTRA.REPUL>
0

>  <SCORE.INTRA.REPUL.0>
0

>  <SCORE.INTRA.VDW>
1.00318e-12

>  <SCORE.INTRA.VDW.0>
-0.120702

>  <SCORE.INTRA.norm>
4.42547e-14

>  <SCORE.RESTR>
0

>  <SCORE.RESTR.CAVITY>
0

>  <SCORE.RESTR.norm>
0

>  <SCORE.SYSTEM>
-5.59304

>  <SCORE.SYSTEM.CONST>
0

>  <SCORE.SYSTEM.DIHEDRAL>
1.42263

>  <SCORE.SYSTEM.POLAR>
-1.75343

>  <SCORE.SYSTEM.VDW>
-0.342705

>  <SCORE.SYSTEM.norm>
-0.215117

>  <SCORE.heavy>
26

>  <SCORE.norm>
-0.519604

$$$$
Tripos 1534-05651
  rDOCK(R)          3D
libRbt.so/2021.1/901 2021/07/19
 27 30  0  0  0  0  0  0  0  0999 V2000
   -4.1559    6.3315    7.8213 N   0  0  0  0  0  0
   -4.1378    5.7391    6.5718 C   0  0  0  0  0  0
   -2.5720    1.2353   11.0657 C   0  0  0  0  0  0
   -1.7149    2.4313   10.7349 C   0  0  0  0  0  0
   -1.8706   -0.2897   11.2640 S   0  0  0  0  0  0
   -2.3595    3.6218   10.5926 N   0  0  0  0  0  0
   -4.7777    7.6337    7.7667 C   0  0  0  0  0  0
   -4.6485    6.6174    5.6487 O   0  0  0  0  0  0
   -3.3806   -1.0174   11.5889 C   0  0  0  0  0  0
   -3.9494    1.2081   11.2428 C   0  0  0  0  0  0
   -4.7938    7.9062    6.2702 C   0  0  0  0  0  0
   -3.6419    5.7602    9.0723 C   0  0  0  0  0  0
   -4.4096   -0.1064   11.5467 C   0  0  0  0  0  0
   -4.3940    4.4891    9.4624 C   0  0  0  0  0  0
   -2.1384    5.5072    8.9872 C   0  0  0  0  0  0
   -3.7994    3.8779   10.7235 C   0  0  0  0  0  0
   -1.6301    4.8548   10.2696 C   0  0  0  0  0  0
   -3.7471    4.6179    6.2791 O   0  0  0  0  0  0
   -0.4964    2.2827   10.6108 O   0  0  0  0  0  0
   -6.1519    7.6525    8.4050 C   0  0  0  0  0  0
   -3.4766   -2.7536   11.9309 S   0  0  0  0  0  0
   -6.3734    8.4433    9.5438 C   0  0  0  0  0  0
   -7.2176    6.8860    7.9062 C   0  0  0  0  0  0
   -5.2215   -3.1245   11.6614 C   0  0  0  0  0  0
   -7.6248    8.4710   10.1623 C   0  0  0  0  0  0
   -8.4691    6.9151    8.5262 C   0  0  0  0  0  0
   -8.6722    7.7071    9.6534 C   0  0  0  0  0  0
  1  2  1  0  0  0
  1  7  1  0  0  0
  1 12  1  0  0  0
  2  8  1  0  0  0
  2 18  2  0  0  0
  3  4  1  0  0  0
  3  5  1  0  0  0
  3 10  2  0  0  0
  4  6  1  0  0  0
  4 19  2  0  0  0
  5  9  1  0  0  0
  6 16  1  0  0  0
  6 17  1  0  0  0
  7 11  1  0  0  0
  7 20  1  0  0  0
  8 11  1  0  0  0
  9 13  2  0  0  0
  9 21  1  0  0  0
 10 13  1  0  0  0
 12 14  1  0  0  0
 12 15  1  0  0  0
 14 16  1  0  0  0
 15 17  1  0  0  0
 20 22  2  0  0  0
 20 23  1  0  0  0
 21 24  1  0  0  0
 22 25  1  0  0  0
 23 26  2  0  0  0
 25 27  2  0  0  0
 26 27  1  0  0  0
M  END
>  <$CLUSTER>
695

>  <CHROM.0>
5.37465738,171.39927143,76.12437286

>  <CHROM.1>
-4.10404108,3.64290339,9.61848502,-1.87767877,-0.19693251,2.67996808

>  <INDEX>
455659

>  <Name>
Tripos 1534-05651

>  <RI>
-2.07807e+09

>  <Rbt.Current_Directory>
/aloy/home/acomajuncosa/PocketVec_v2/GitLab_repo

>  <Rbt.Executable>
rbdock ($Id: //depot/dev/client3/rdock/2021.1/src/exe/rbdock.cxx#4 $)

>  <Rbt.Library>
libRbt.so (2021.1, Build901 2021/07/19)

>  <Rbt.Parameter_File>
examples/2_pocketvec/rDock_results/dock.prm

>  <Rbt.Receptor>
examples/2_pocketvec/rDock_results/st_parameters.prm

>  <SCORE>
-14.2599

>  <SCORE.INTER>
-8.68172

>  <SCORE.INTER.CONST>
1

>  <SCORE.INTER.POLAR>
-0.406429

>  <SCORE.INTER.REPUL>
0

>  <SCORE.INTER.ROT>
4

>  <SCORE.INTER.VDW>
-16.6999

>  <SCORE.INTER.norm>
-0.321545

>  <SCORE.INTRA>
-2.36811e-13

>  <SCORE.INTRA.DIHEDRAL>
-1.20792e-13

>  <SCORE.INTRA.DIHEDRAL.0>
3.51384

>  <SCORE.INTRA.POLAR>
0

>  <SCORE.INTRA.POLAR.0>
0

>  <SCORE.INTRA.REPUL>
0

>  <SCORE.INTRA.REPUL.0>
0

>  <SCORE.INTRA.VDW>
-1.76414e-13

>  <SCORE.INTRA.VDW.0>
0.244092

>  <SCORE.INTRA.norm>
-8.77076e-15

>  <SCORE.RESTR>
0

>  <SCORE.RESTR.CAVITY>
0

>  <SCORE.RESTR.norm>
0

>  <SCORE.SYSTEM>
-5.57821

>  <SCORE.SYSTEM.CONST>
0

>  <SCORE.SYSTEM.DIHEDRAL>
1.66146

>  <SCORE.SYSTEM.POLAR>
-1.76392

>  <SCORE.SYSTEM.VDW>
-0.411598

>  <SCORE.SYSTEM.norm>
-0.2066

>  <SCORE.heavy>
27

>  <SCORE.norm>
-0.528145

$$$$
Chembridge 5859646
  rDOCK(R)          3D
libRbt.so/2021.1/901 2021/07/19
 26 27  0  0  0  0  0  0  0  0999 V2000
    2.9329    5.3607   11.4541 C   0  0  0  0  0  0
    3.5037    9.0720   13.4480 N   0  0  0  0  0  0
    2.9887    6.6678   11.7675 N   0  0  0  0  0  0
    3.6710   10.3672   13.7312 C   0  0  0  0  0  0
   -3.1620    2.1294   12.0703 C   0  0  0  0  0  0
   -2.1074    2.6961   11.9682 C   0  0  0  0  0  0
    1.5926    4.6868   11.6111 C   0  0  0  0  0  0
   -4.4479    1.4422   12.1932 C   0  0  0  0  0  0
    4.5898    8.1977   12.9665 C   0  0  0  0  0  0
    2.2596    8.2853   13.5537 C   0  0  0  0  0  0
    1.9025    7.5421   12.2490 C   0  0  0  0  0  0
    4.2328    7.4545   11.6617 C   0  0  0  0  0  0
    4.7216   10.9941   13.6327 O   0  0  0  0  0  0
    3.8955    4.7006   11.0566 O   0  0  0  0  0  0
   -0.8508    3.3711   11.8448 C   0  0  0  0  0  0
    1.3383    3.5518   10.8349 C   0  0  0  0  0  0
    0.6442    5.1545   12.5088 C   0  0  0  0  0  0
    2.5340   10.9804   14.1595 O   0  0  0  0  0  0
   -0.5823    4.4955   12.6234 C   0  0  0  0  0  0
    0.1095    2.8981   10.9530 C   0  0  0  0  0  0
   -5.4888    2.2713   11.6698 O   0  0  0  0  0  0
   -4.4473    0.1490   11.3728 C   0  0  0  0  0  0
   -4.7668    1.1386   13.6595 C   0  0  0  0  0  0
    2.5709   12.3553   14.4927 C   0  0  0  0  0  0
    1.1928   12.7986   14.9379 C   0  0  0  0  0  0
   -5.2791    2.4558   10.7511 H   0  0  0  0  0  0
  1  3  1  0  0  0
  1  7  1  0  0  0
  1 14  2  0  0  0
  2  4  1  0  0  0
  2  9  1  0  0  0
  2 10  1  0  0  0
  3 11  1  0  0  0
  3 12  1  0  0  0
  4 13  2  0  0  0
  4 18  1  0  0  0
  5  6  3  0  0  0
  5  8  1  0  0  0
  6 15  1  0  0  0
  7 16  1  0  0  0
  7 17  2  0  0  0
  8 21  1  0  0  0
  8 22  1  0  0  0
  8 23  1  0  0  0
  9 12  1  0  0  0
 10 11  1  0  0  0
 15 19  2  0  0  0
 15 20  1  0  0  0
 16 20  2  0  0  0
 17 19  1  0  0  0
 18 24  1  0  0  0
 21 26  1  0  0  0
 24 25  1  0  0  0
M  END
>  <$CLUSTER>
78

>  <CHROM.0>
2.88337462,172.01082548,75.69811554

>  <CHROM.1>
0.76936859,6.04886475,12.52624096,-0.87038344,-0.27704888,-2.72495712

>  <INDEX>
53762

>  <Name>
Chembridge 5859646

>  <RI>
-2.07807e+09

>  <Rbt.Current_Directory>
/aloy/home/acomajuncosa/PocketVec_v2/GitLab_repo

>  <Rbt.Executable>
rbdock ($Id: //depot/dev/client3/rdock/2021.1/src/exe/rbdock.cxx#4 $)

>  <Rbt.Library>
libRbt.so (2021.1, Build901 2021/07/19)

>  <Rbt.Parameter_File>
examples/2_pocketvec/rDock_results/dock.prm

>  <Rbt.Receptor>
examples/2_pocketvec/rDock_results/st_parameters.prm

>  <SCORE>
-13.2156

>  <SCORE.INTER>
-7.62652

>  <SCORE.INTER.CONST>
1

>  <SCORE.INTER.POLAR>
-1.5746

>  <SCORE.INTER.REPUL>
0.0137548

>  <SCORE.INTER.ROT>
5

>  <SCORE.INTER.VDW>
-12.7417

>  <SCORE.INTER.norm>
-0.305061

>  <SCORE.INTRA>
1.87406e-12

>  <SCORE.INTRA.DIHEDRAL>
1.98952e-13

>  <SCORE.INTRA.DIHEDRAL.0>
2.39456

>  <SCORE.INTRA.POLAR>
0

>  <SCORE.INTRA.POLAR.0>
0

>  <SCORE.INTRA.REPUL>
0

>  <SCORE.INTRA.REPUL.0>
0

>  <SCORE.INTRA.VDW>
1.77458e-12

>  <SCORE.INTRA.VDW.0>
2.87834

>  <SCORE.INTRA.norm>
7.49623e-14

>  <SCORE.RESTR>
0

>  <SCORE.RESTR.CAVITY>
0

>  <SCORE.RESTR.norm>
0

>  <SCORE.SYSTEM>
-5.58904

>  <SCORE.SYSTEM.CONST>
0

>  <SCORE.SYSTEM.DIHEDRAL>
1.5289

>  <SCORE.SYSTEM.POLAR>
-1.76051

>  <SCORE.SYSTEM.VDW>
-0.367766

>  <SCORE.SYSTEM.norm>
-0.223562

>  <SCORE.heavy>
25

>  <SCORE.norm>
-0.528622

$$$$
Specs AK-968/37053096
  rDOCK(R)          3D
libRbt.so/2021.1/901 2021/07/19
 24 26  0  0  0  0  0  0  0  0999 V2000
   -4.8671    2.8795   12.5848 N   0  0  0  0  0  0
   -5.2431    2.3271   13.8071 C   0  0  0  0  0  0
   -4.6666    4.3604   11.0678 C   0  0  0  0  0  0
   -5.1507    4.1718   12.2575 N   0  0  0  0  0  0
   -4.1751    2.1696   11.6121 C   0  0  0  0  0  0
   -3.9836    3.1521   10.4873 C   0  0  0  0  0  0
   -5.0050    1.0943   14.2023 N   0  0  0  0  0  0
   -6.1005    3.3093   14.9270 S   0  0  0  0  0  0
   -4.7674    5.6444   10.3250 C   0  0  0  0  0  0
   -5.5264    0.9045   15.4661 C   0  0  0  0  0  0
   -6.1591    1.9947   16.0224 C   0  0  0  0  0  0
   -3.7862    1.0155   11.6497 O   0  0  0  0  0  0
   -2.5429    3.3783   10.1464 C   0  0  0  0  0  0
   -2.1118    3.2383    8.9380 N   0  0  0  0  0  0
   -5.2494    5.4634    9.0688 F   0  0  0  0  0  0
   -5.5890    6.5346   10.9349 F   0  0  0  0  0  0
   -3.5592    6.2501   10.1984 F   0  0  0  0  0  0
   -5.4579   -0.3056   16.2096 C   0  0  0  0  0  0
   -6.7418    1.9490   17.3096 C   0  0  0  0  0  0
   -0.6825    3.5014    8.8026 C   0  0  0  0  0  0
   -0.2965    3.3065    7.3471 C   0  0  0  0  0  0
   -6.0305   -0.3630   17.4839 C   0  0  0  0  0  0
   -6.6631    0.7514   18.0250 C   0  0  0  0  0  0
    1.2084    3.5624    7.1461 C   0  0  0  0  0  0
  1  2  1  0  0  0
  1  4  1  0  0  0
  1  5  1  0  0  0
  2  7  2  0  0  0
  2  8  1  0  0  0
  3  4  2  0  0  0
  3  6  1  0  0  0
  3  9  1  0  0  0
  5  6  1  0  0  0
  5 12  2  0  0  0
  6 13  1  0  0  0
  7 10  1  0  0  0
  8 11  1  0  0  0
  9 15  1  0  0  0
  9 16  1  0  0  0
  9 17  1  0  0  0
 10 11  2  0  0  0
 10 18  1  0  0  0
 11 19  1  0  0  0
 13 14  2  0  0  0
 14 20  1  0  0  0
 18 22  2  0  0  0
 19 23  2  0  0  0
 20 21  1  0  0  0
 21 24  1  0  0  0
 22 23  1  0  0  0
M  END
>  <$CLUSTER>
765

>  <CHROM.0>
2.74930183,171.76825066,73.54643863

>  <CHROM.1>
-4.34906719,3.09862891,12.28323183,2.20996758,-0.71928667,2.40489989

>  <INDEX>
503343

>  <Name>
Specs AK-968/37053096

>  <RI>
-2.07807e+09

>  <Rbt.Current_Directory>
/aloy/home/acomajuncosa/PocketVec_v2/GitLab_repo

>  <Rbt.Executable>
rbdock ($Id: //depot/dev/client3/rdock/2021.1/src/exe/rbdock.cxx#4 $)

>  <Rbt.Library>
libRbt.so (2021.1, Build901 2021/07/19)

>  <Rbt.Parameter_File>
examples/2_pocketvec/rDock_results/dock.prm

>  <Rbt.Receptor>
examples/2_pocketvec/rDock_results/st_parameters.prm

>  <SCORE>
-17.0544

>  <SCORE.INTER>
-11.4466

>  <SCORE.INTER.CONST>
1

>  <SCORE.INTER.POLAR>
-0.00791161

>  <SCORE.INTER.REPUL>
0

>  <SCORE.INTER.ROT>
5

>  <SCORE.INTER.VDW>
-21.8197

>  <SCORE.INTER.norm>
-0.47694

>  <SCORE.INTRA>
-1.56319e-13

>  <SCORE.INTRA.DIHEDRAL>
-6.4837e-14

>  <SCORE.INTRA.DIHEDRAL.0>
4.18223

>  <SCORE.INTRA.POLAR>
0

>  <SCORE.INTRA.POLAR.0>
0

>  <SCORE.INTRA.REPUL>
0

>  <SCORE.INTRA.REPUL.0>
0

>  <SCORE.INTRA.VDW>
-1.23901e-13

>  <SCORE.INTRA.VDW.0>
-2.332

>  <SCORE.INTRA.norm>
-6.51331e-15

>  <SCORE.RESTR>
0

>  <SCORE.RESTR.CAVITY>
0

>  <SCORE.RESTR.norm>
0

>  <SCORE.SYSTEM>
-5.60782

>  <SCORE.SYSTEM.CONST>
0

>  <SCORE.SYSTEM.DIHEDRAL>
1.26761

>  <SCORE.SYSTEM.POLAR>
-1.74298

>  <SCORE.SYSTEM.VDW>
-0.315489

>  <SCORE.SYSTEM.norm>
-0.233659

>  <SCORE.heavy>
24

>  <SCORE.norm>
-0.710599

$$$$
InterBioScreen STOCK3S-07953
  rDOCK(R)          3D
libRbt.so/2021.1/901 2021/07/19
 26 28  0  0  0  0  0  0  0  0999 V2000
   -6.2156   10.7045    8.9846 N   0  0  0  0  0  0
   -4.9780    5.2017    8.8308 C   0  0  0  0  0  0
   -5.7438   10.9545   10.1853 C   0  0  0  0  0  0
   -5.3646    8.7953    9.8916 C   0  0  0  0  0  0
   -5.3196    6.6540    8.8543 C   0  0  0  0  0  0
   -5.2209    9.8361   10.7721 N   0  0  0  0  0  0
   -4.6469    0.7165   12.8650 C   0  0  0  0  0  0
   -4.4544    1.2660   11.5713 C   0  0  0  0  0  0
   -5.9894    9.3621    8.7838 C   0  0  0  0  0  0
   -5.0143    7.4466    9.9656 C   0  0  0  0  0  0
   -4.5789    3.2198   10.2048 N   0  0  0  0  0  0
   -4.3723   -0.6487   13.0623 C   0  0  0  0  0  0
   -4.8858    4.5684   10.0510 N   0  0  0  0  0  0
   -4.8061    4.6223    7.7611 O   0  0  0  0  0  0
   -5.9460    7.1947    7.7288 C   0  0  0  0  0  0
   -4.7416    2.7185   11.3400 C   0  0  0  0  0  0
   -6.2881    8.5521    7.6761 C   0  0  0  0  0  0
   -4.0076    0.4686   10.5303 C   0  0  0  0  0  0
   -3.9207   -1.4398   12.0029 C   0  0  0  0  0  0
   -3.7379   -0.8834   10.7387 C   0  0  0  0  0  0
   -5.0981    1.5725   13.8649 O   0  0  0  0  0  0
   -3.6929   -2.7579   12.3415 O   0  0  0  0  0  0
   -5.2880    1.0082   15.1686 C   0  0  0  0  0  0
   -3.2302   -3.6138   11.3025 C   0  0  0  0  0  0
   -4.8033    9.7851   11.6903 H   0  0  0  0  0  0
   -5.0512    5.1160   10.8837 H   0  0  0  0  0  0
  1  3  2  0  0  0
  1  9  1  0  0  0
  2  5  1  0  0  0
  2 13  1  0  0  0
  2 14  2  0  0  0
  3  6  1  0  0  0
  4  6  1  0  0  0
  4  9  1  0  0  0
  4 10  2  0  0  0
  5 10  1  0  0  0
  5 15  2  0  0  0
  6 25  1  0  0  0
  7  8  2  0  0  0
  7 12  1  0  0  0
  7 21  1  0  0  0
  8 16  1  0  0  0
  8 18  1  0  0  0
  9 17  2  0  0  0
 11 13  1  0  0  0
 11 16  2  0  0  0
 12 19  2  0  0  0
 13 26  1  0  0  0
 15 17  1  0  0  0
 18 20  2  0  0  0
 19 20  1  0  0  0
 19 22  1  0  0  0
 21 23  1  0  0  0
 22 24  1  0  0  0
M  END
>  <$CLUSTER>
521

>  <CHROM.0>
3.35319035,172.29961298,75.26111919

>  <CHROM.1>
-4.88253906,3.88712457,10.65716893,2.42436560,1.36991345,-1.14444690

>  <INDEX>
341558

>  <Name>
InterBioScreen STOCK3S-07953

>  <RI>
-2.07807e+09

>  <Rbt.Current_Directory>
/aloy/home/acomajuncosa/PocketVec_v2/GitLab_repo

>  <Rbt.Executable>
rbdock ($Id: //depot/dev/client3/rdock/2021.1/src/exe/rbdock.cxx#4 $)

>  <Rbt.Library>
libRbt.so (2021.1, Build901 2021/07/19)

>  <Rbt.Parameter_File>
examples/2_pocketvec/rDock_results/dock.prm

>  <Rbt.Receptor>
examples/2_pocketvec/rDock_results/st_parameters.prm

>  <SCORE>
-13.8801

>  <SCORE.INTER>
-8.2897

>  <SCORE.INTER.CONST>
1

>  <SCORE.INTER.POLAR>
-1.00268

>  <SCORE.INTER.REPUL>
0

>  <SCORE.INTER.ROT>
5

>  <SCORE.INTER.VDW>
-15.2806

>  <SCORE.INTER.norm>
-0.345404

>  <SCORE.INTRA>
4.48552e-12

>  <SCORE.INTRA.DIHEDRAL>
-6.37268e-13

>  <SCORE.INTRA.DIHEDRAL.0>
2.63804

>  <SCORE.INTRA.POLAR>
0

>  <SCORE.INTRA.POLAR.0>
0

>  <SCORE.INTRA.REPUL>
0

>  <SCORE.INTRA.REPUL.0>
0

>  <SCORE.INTRA.VDW>
4.80416e-12

>  <SCORE.INTRA.VDW.0>
4.20812

>  <SCORE.INTRA.norm>
1.86897e-13

>  <SCORE.RESTR>
0

>  <SCORE.RESTR.CAVITY>
0

>  <SCORE.RESTR.norm>
0

>  <SCORE.SYSTEM>
-5.59044

>  <SCORE.SYSTEM.CONST>
0

>  <SCORE.SYSTEM.DIHEDRAL>
1.45164

>  <SCORE.SYSTEM.POLAR>
-1.75699

>  <SCORE.SYSTEM.VDW>
-0.342504

>  <SCORE.SYSTEM.norm>
-0.232935

>  <SCORE.heavy>
24

>  <SCORE.norm>
-0.578339

$$$$
Maybridge RJF 01152
  rDOCK(R)          3D
libRbt.so/2021.1/901 2021/07/19
 21 22  0  0  0  0  0  0  0  0999 V2000
   -3.9963    1.1498   11.8609 C   0  0  0  0  0  0
   -4.3927    1.4903   13.1042 N   0  0  0  0  0  0
   -3.6284    2.2360   11.0021 O   0  0  0  0  0  0
   -4.7296    0.4494   13.8857 C   0  0  0  0  0  0
   -3.7246    3.4897   11.5452 C   0  0  0  0  0  0
   -4.7021   -0.8508   13.5315 N   0  0  0  0  0  0
   -3.9178   -0.1213   11.3681 C   0  0  0  0  0  0
   -4.2921   -1.1048   12.2684 C   0  0  0  0  0  0
   -3.3488    4.4958   10.6496 N   0  0  0  0  0  0
   -5.1805    0.7605   15.2790 C   0  0  0  0  0  0
   -4.1027    3.6939   12.6970 O   0  0  0  0  0  0
   -5.5564   -0.2590   16.1792 C   0  0  0  0  0  0
   -5.2448    2.0914   15.7467 C   0  0  0  0  0  0
   -6.0285    1.3589   17.9116 C   0  0  0  0  0  0
   -5.6630    2.3863   17.0464 C   0  0  0  0  0  0
   -5.9753    0.0369   17.4797 C   0  0  0  0  0  0
   -6.5378    1.7336   19.4924 Cl  0  0  0  0  0  0
   -3.4694   -0.4447    9.9760 C   0  0  0  0  0  0
   -4.2498   -2.5436   11.8428 C   0  0  0  0  0  0
   -3.3903    5.8916   11.0600 C   0  0  0  0  0  0
   -2.9021    4.2414    9.2839 C   0  0  0  0  0  0
  1  2  1  0  0  0
  1  3  1  0  0  0
  1  7  2  0  0  0
  2  4  2  0  0  0
  3  5  1  0  0  0
  4  6  1  0  0  0
  4 10  1  0  0  0
  5  9  1  0  0  0
  5 11  2  0  0  0
  6  8  2  0  0  0
  7  8  1  0  0  0
  7 18  1  0  0  0
  8 19  1  0  0  0
  9 20  1  0  0  0
  9 21  1  0  0  0
 10 12  1  0  0  0
 10 13  2  0  0  0
 12 16  2  0  0  0
 13 15  1  0  0  0
 14 15  2  0  0  0
 14 16  1  0  0  0
 14 17  1  0  0  0
M  END
>  <$CLUSTER>
949

>  <CHROM.0>
0.03120833,171.05876566,73.37837088

>  <CHROM.1>
-4.62890662,1.51405740,13.80796901,0.02269647,-1.23786474,-2.93642419

>  <INDEX>
619839

>  <Name>
Maybridge RJF 01152

>  <RI>
-2.07807e+09

>  <Rbt.Current_Directory>
/aloy/home/acomajuncosa/PocketVec_v2/GitLab_repo

>  <Rbt.Executable>
rbdock ($Id: //depot/dev/client3/rdock/2021.1/src/exe/rbdock.cxx#4 $)

>  <Rbt.Library>
libRbt.so (2021.1, Build901 2021/07/19)

>  <Rbt.Parameter_File>
examples/2_pocketvec/rDock_results/dock.prm

>  <Rbt.Receptor>
examples/2_pocketvec/rDock_results/st_parameters.prm

>  <SCORE>
-14.7641

>  <SCORE.INTER>
-9.15912

>  <SCORE.INTER.CONST>
1

>  <SCORE.INTER.POLAR>
0

>  <SCORE.INTER.REPUL>
0

>  <SCORE.INTER.ROT>
3

>  <SCORE.INTER.VDW>
-17.5591

>  <SCORE.INTER.norm>
-0.436148

>  <SCORE.INTRA>
-1.99374e-12

>  <SCORE.INTRA.DIHEDRAL>
2.22045e-15

>  <SCORE.INTRA.DIHEDRAL.0>
3.98762e-05

>  <SCORE.INTRA.POLAR>
0

>  <SCORE.INTRA.POLAR.0>
0

>  <SCORE.INTRA.REPUL>
0

>  <SCORE.INTRA.REPUL.0>
0

>  <SCORE.INTRA.VDW>
-1.99485e-12

>  <SCORE.INTRA.VDW.0>
2.47585

>  <SCORE.INTRA.norm>
-9.49399e-14

>  <SCORE.RESTR>
0

>  <SCORE.RESTR.CAVITY>
0

>  <SCORE.RESTR.norm>
0

>  <SCORE.SYSTEM>
-5.60498

>  <SCORE.SYSTEM.CONST>
0

>  <SCORE.SYSTEM.DIHEDRAL>
1.29825

>  <SCORE.SYSTEM.POLAR>
-1.74159

>  <SCORE.SYSTEM.VDW>
-0.332684

>  <SCORE.SYSTEM.norm>
-0.266904

>  <SCORE.heavy>
21

>  <SCORE.norm>
-0.703052

$$$$
Tripos 1518-03381
  rDOCK(R)          3D
libRbt.so/2021.1/901 2021/07/19
 28 31  0  0  0  0  0  0  0  0999 V2000
    0.0205    2.7161   11.0339 C   0  0  0  0  0  0
   -2.4358    2.2188   10.8505 C   0  0  0  0  0  0
    0.5864    3.5009    9.9541 C   0  0  0  0  0  0
   -3.4805    1.2899   10.6978 N   0  0  0  0  0  0
    1.7240    4.3077   12.1295 S   0  0  0  0  0  0
    0.5633    3.0701   12.2527 C   0  0  0  0  0  0
   -1.0252    1.6492   10.8669 C   0  0  0  0  0  0
    1.5376    4.4134   10.4233 C   0  0  0  0  0  0
   -4.5807    0.9320   13.0080 N   0  3  0  0  0  0
    0.3279    3.4786    8.5591 C   0  0  0  0  0  0
   -2.6296    3.4303   10.9664 O   0  0  0  0  0  0
   -4.8607    1.7586   10.6726 C   0  0  0  0  0  0
   -5.4273    5.0778   14.9254 N   0  0  0  0  0  0
   -4.7672    1.3676   14.4222 C   0  0  0  0  0  0
    2.2208    5.2860    9.5514 C   0  0  0  0  0  0
   -4.5211    2.8488   14.6437 C   0  0  0  0  0  0
   -5.5805    1.5437   12.0388 C   0  0  0  0  0  0
    1.0029    4.3416    7.6913 C   0  0  0  0  0  0
   -4.2870   -0.9911   11.3979 C   0  0  0  0  0  0
   -3.3106   -0.1538   10.5560 C   0  0  0  0  0  0
    1.9402    5.2355    8.1850 C   0  0  0  0  0  0
    0.6581    4.2787    6.0224 Cl  0  0  0  0  0  0
   -4.3968   -0.5592   12.8657 C   0  0  0  0  0  0
   -5.5792    3.7377   14.7527 C   0  0  0  0  0  0
   -4.1535    5.5430   14.9724 C   0  0  0  0  0  0
   -3.2222    3.3625   14.6788 C   0  0  0  0  0  0
   -3.0339    4.7320   14.8546 C   0  0  0  0  0  0
   -3.6964    1.3255   12.7178 H   0  0  0  0  0  0
  1  3  1  0  0  0
  1  6  2  0  0  0
  1  7  1  0  0  0
  2  4  1  0  0  0
  2  7  1  0  0  0
  2 11  2  0  0  0
  3  8  2  0  0  0
  3 10  1  0  0  0
  4 12  1  0  0  0
  4 20  1  0  0  0
  5  6  1  0  0  0
  5  8  1  0  0  0
  8 15  1  0  0  0
  9 14  1  0  0  0
  9 17  1  0  0  0
  9 23  1  0  0  0
  9 28  1  0  0  0
 10 18  2  0  0  0
 12 17  1  0  0  0
 13 24  2  0  0  0
 13 25  1  0  0  0
 14 16  1  0  0  0
 15 21  2  0  0  0
 16 24  1  0  0  0
 16 26  2  0  0  0
 18 21  1  0  0  0
 18 22  1  0  0  0
 19 20  1  0  0  0
 19 23  1  0  0  0
 25 27  2  0  0  0
 26 27  1  0  0  0
M  END
>  <$CLUSTER>
674

>  <CHROM.0>
2.13559497,171.92945073,73.67045371

>  <CHROM.1>
-1.84617273,2.99823583,11.32989365,-0.42235963,0.64835670,1.01311223

>  <INDEX>
443046

>  <Name>
Tripos 1518-03381

>  <RI>
-2.07807e+09

>  <Rbt.Current_Directory>
/aloy/home/acomajuncosa/PocketVec_v2/GitLab_repo

>  <Rbt.Executable>
rbdock ($Id: //depot/dev/client3/rdock/2021.1/src/exe/rbdock.cxx#4 $)

>  <Rbt.Library>
libRbt.so (2021.1, Build901 2021/07/19)

>  <Rbt.Parameter_File>
examples/2_pocketvec/rDock_results/dock.prm

>  <Rbt.Receptor>
examples/2_pocketvec/rDock_results/st_parameters.prm

>  <SCORE>
-17.1821

>  <SCORE.INTER>
-11.573

>  <SCORE.INTER.CONST>
1

>  <SCORE.INTER.POLAR>
0

>  <SCORE.INTER.REPUL>
0

>  <SCORE.INTER.ROT>
4

>  <SCORE.INTER.VDW>
-20.973

>  <SCORE.INTER.norm>
-0.428629

>  <SCORE.INTRA>
-1.77636e-14

>  <SCORE.INTRA.DIHEDRAL>
1.06581e-14

>  <SCORE.INTRA.DIHEDRAL.0>
3.49

>  <SCORE.INTRA.POLAR>
0

>  <SCORE.INTRA.POLAR.0>
0

>  <SCORE.INTRA.REPUL>
0

>  <SCORE.INTRA.REPUL.0>
0

>  <SCORE.INTRA.VDW>
-2.30926e-14

>  <SCORE.INTRA.VDW.0>
-2.47805

>  <SCORE.INTRA.norm>
-6.5791e-16

>  <SCORE.RESTR>
0

>  <SCORE.RESTR.CAVITY>
0

>  <SCORE.RESTR.norm>
0

>  <SCORE.SYSTEM>
-5.60913

>  <SCORE.SYSTEM.CONST>
0

>  <SCORE.SYSTEM.DIHEDRAL>
1.26707

>  <SCORE.SYSTEM.POLAR>
-1.744

>  <SCORE.SYSTEM.VDW>
-0.313052

>  <SCORE.SYSTEM.norm>
-0.207746

>  <SCORE.heavy>
27

>  <SCORE.norm>
-0.636375

$$$$
Specs AG-205/07903010
  rDOCK(R)          3D
libRbt.so/2021.1/901 2021/07/19
 27 29  0  0  0  0  0  0  0  0999 V2000
   -6.6246    2.8802   17.3705 N   0  3  0  0  0  0
   -4.7730    1.3253   13.0884 C   0  0  0  0  0  0
   -5.0175    2.5867   12.6155 O   0  0  0  0  0  0
   -4.2124    0.5630   12.0800 C   0  0  0  0  0  0
   -6.0323    1.8225   16.5523 C   0  0  0  0  0  0
   -4.6146    2.6183   11.3198 C   0  0  0  0  0  0
   -4.4752    5.3290    7.4103 C   0  0  0  0  0  0
   -5.1368    1.0714   14.4802 C   0  0  0  0  0  0
   -4.4219    3.9801    9.3764 N   0  0  0  0  0  0
   -5.7190    2.1110   15.2839 C   0  0  0  0  0  0
   -4.1118    1.3979   10.9409 C   0  0  0  0  0  0
   -6.8118    3.9941   16.8600 O   0  5  0  0  0  0
   -6.9088    2.5974   18.5424 O   0  0  0  0  0  0
   -4.7769    3.8563   10.6117 C   0  0  0  0  0  0
   -4.7400    6.7443    6.9680 C   0  0  0  0  0  0
   -4.6442    5.2118    8.8503 N   0  0  0  0  0  0
   -4.1463    4.4484    6.6607 O   0  0  0  0  0  0
   -4.5806    7.8654    7.7368 C   0  0  0  0  0  0
   -5.1198    6.8686    5.5993 C   0  0  0  0  0  0
   -5.2183    9.2684    5.8703 C   0  0  0  0  0  0
   -5.3636    8.1370    5.0696 C   0  0  0  0  0  0
   -4.8256    9.1322    7.2001 C   0  0  0  0  0  0
   -5.4731   10.4423    5.2925 F   0  0  0  0  0  0
   -5.8341    0.5054   17.2250 C   0  0  0  0  0  0
   -4.9219   -0.1943   15.0497 C   0  0  0  0  0  0
   -5.2656   -0.4508   16.3803 C   0  0  0  0  0  0
   -4.9107    5.9990    9.4243 H   0  0  0  0  0  0
  1  5  1  0  0  0
  1 12  1  0  0  0
  1 13  2  0  0  0
  2  3  1  0  0  0
  2  4  2  0  0  0
  2  8  1  0  0  0
  3  6  1  0  0  0
  4 11  1  0  0  0
  5 10  2  0  0  0
  5 24  1  0  0  0
  6 11  2  0  0  0
  6 14  1  0  0  0
  7 15  1  0  0  0
  7 16  1  0  0  0
  7 17  2  0  0  0
  8 10  1  0  0  0
  8 25  2  0  0  0
  9 14  2  0  0  0
  9 16  1  0  0  0
 15 18  1  0  0  0
 15 19  2  0  0  0
 16 27  1  0  0  0
 18 22  2  0  0  0
 19 21  1  0  0  0
 20 21  2  0  0  0
 20 22  1  0  0  0
 20 23  1  0  0  0
 24 26  2  0  0  0
 25 26  1  0  0  0
M  END
>  <$CLUSTER>
940

>  <CHROM.0>
177.00072435,171.98981290,75.52831570

>  <CHROM.1>
-5.17295901,4.09850867,11.31083430,1.76045158,-1.17716103,2.32047414

>  <INDEX>
492692

>  <Name>
Specs AG-205/07903010

>  <RI>
-2.07807e+09

>  <Rbt.Current_Directory>
/aloy/home/acomajuncosa/PocketVec_v2/GitLab_repo

>  <Rbt.Executable>
rbdock ($Id: //depot/dev/client3/rdock/2021.1/src/exe/rbdock.cxx#4 $)

>  <Rbt.Library>
libRbt.so (2021.1, Build901 2021/07/19)

>  <Rbt.Parameter_File>
examples/2_pocketvec/rDock_results/dock.prm

>  <Rbt.Receptor>
examples/2_pocketvec/rDock_results/st_parameters.prm

>  <SCORE>
-17.9838

>  <SCORE.INTER>
-12.5444

>  <SCORE.INTER.CONST>
1

>  <SCORE.INTER.POLAR>
-1.00291

>  <SCORE.INTER.REPUL>
0

>  <SCORE.INTER.ROT>
4

>  <SCORE.INTER.VDW>
-18.5345

>  <SCORE.INTER.norm>
-0.482476

>  <SCORE.INTRA>
9.17599e-13

>  <SCORE.INTRA.DIHEDRAL>
4.74731e-13

>  <SCORE.INTRA.DIHEDRAL.0>
2.65709

>  <SCORE.INTRA.POLAR>
0

>  <SCORE.INTRA.POLAR.0>
0

>  <SCORE.INTRA.REPUL>
0

>  <SCORE.INTRA.REPUL.0>
0

>  <SCORE.INTRA.VDW>
6.80234e-13

>  <SCORE.INTRA.VDW.0>
-0.39122

>  <SCORE.INTRA.norm>
3.52923e-14

>  <SCORE.RESTR>
0

>  <SCORE.RESTR.CAVITY>
0

>  <SCORE.RESTR.norm>
0

>  <SCORE.SYSTEM>
-5.43942

>  <SCORE.SYSTEM.CONST>
0

>  <SCORE.SYSTEM.DIHEDRAL>
1.51853

>  <SCORE.SYSTEM.POLAR>
-1.75914

>  <SCORE.SYSTEM.VDW>
-0.217603

>  <SCORE.SYSTEM.norm>
-0.209208

>  <SCORE.heavy>
26

>  <SCORE.norm>
-0.691684

$$$$
Asinex ASN 04479736
  rDOCK(R)          3D
libRbt.so/2021.1/901 2021/07/19
 28 31  0  0  0  0  0  0  0  0999 V2000
   -3.8522    3.3962   11.1896 S   0  0  0  0  0  0
   -3.8153    3.8873   12.8166 N   0  0  0  0  0  0
   -4.1376   -2.5933   11.5288 N   0  0  0  0  0  0
   -3.0890   -3.4450   11.5807 N   0  0  0  0  0  0
   -3.5937   -4.6669   11.6393 N   0  0  0  0  0  0
   -4.9586   -4.6353   11.6250 N   0  0  0  0  0  0
   -3.9154    1.6117   11.3176 C   0  0  0  0  0  0
   -5.2819   -3.3650   11.5586 C   0  0  0  0  0  0
   -4.0108   -1.1540   11.4574 C   0  0  0  0  0  0
   -2.5195    3.8598   13.5248 C   0  0  0  0  0  0
   -2.7776   -0.5004   11.4334 C   0  0  0  0  0  0
   -2.7251    0.8926   11.3618 C   0  0  0  0  0  0
   -5.0980    3.8586   10.6031 O   0  0  0  0  0  0
   -2.5869    3.7617   10.5762 O   0  0  0  0  0  0
   -1.8427    5.2175   13.4227 C   0  0  0  0  0  0
   -5.1962   -0.4182   11.4077 C   0  0  0  0  0  0
   -2.1543    6.1027   14.3987 O   0  0  0  0  0  0
   -5.1516    0.9751   11.3357 C   0  0  0  0  0  0
   -5.0616    3.7945   13.6242 C   0  0  0  0  0  0
   -0.9532    5.7407   12.5317 C   0  0  0  0  0  0
   -1.4433    7.2272   14.1220 C   0  0  0  0  0  0
   -0.6897    7.0552   12.9846 C   0  0  0  0  0  0
   -1.4190   -1.1977   11.4811 C   0  0  0  0  0  0
   -5.2665    5.0932   14.4006 C   0  0  0  0  0  0
   -5.0829    2.5827   14.5524 C   0  0  0  0  0  0
   -6.5197    5.0426   15.2732 C   0  0  0  0  0  0
   -6.3133    2.5289   15.4050 C   0  0  0  0  0  0
   -6.5154    3.8222   16.1887 C   0  0  0  0  0  0
  1  2  1  0  0  0
  1  7  1  0  0  0
  1 13  2  0  0  0
  1 14  2  0  0  0
  2 10  1  0  0  0
  2 19  1  0  0  0
  3  4  1  0  0  0
  3  8  1  0  0  0
  3  9  1  0  0  0
  4  5  2  0  0  0
  5  6  1  0  0  0
  6  8  2  0  0  0
  7 12  2  0  0  0
  7 18  1  0  0  0
  9 11  2  0  0  0
  9 16  1  0  0  0
 10 15  1  0  0  0
 11 12  1  0  0  0
 11 23  1  0  0  0
 15 17  1  0  0  0
 15 20  2  0  0  0
 16 18  2  0  0  0
 17 21  1  0  0  0
 19 24  1  0  0  0
 19 25  1  0  0  0
 20 22  1  0  0  0
 21 22  2  0  0  0
 24 26  1  0  0  0
 25 27  1  0  0  0
 26 28  1  0  0  0
 27 28  1  0  0  0
M  END
>  <$CLUSTER>
216

>  <CHROM.0>
-23.23225845,70.08257571,74.74962097

>  <CHROM.1>
-3.79678926,2.03977699,12.56062413,-1.45213088,-0.59204557,-2.81787338

>  <INDEX>
140148

>  <Name>
Asinex ASN 04479736

>  <RI>
-2.07807e+09

>  <Rbt.Current_Directory>
/aloy/home/acomajuncosa/PocketVec_v2/GitLab_repo

>  <Rbt.Executable>
rbdock ($Id: //depot/dev/client3/rdock/2021.1/src/exe/rbdock.cxx#4 $)

>  <Rbt.Library>
libRbt.so (2021.1, Build901 2021/07/19)

>  <Rbt.Parameter_File>
examples/2_pocketvec/rDock_results/dock.prm

>  <Rbt.Receptor>
examples/2_pocketvec/rDock_results/st_parameters.prm

>  <SCORE>
-2.46344

>  <SCORE.INTER>
-0.201797

>  <SCORE.INTER.CONST>
1

>  <SCORE.INTER.POLAR>
-0.124419

>  <SCORE.INTER.REPUL>
0.387943

>  <SCORE.INTER.ROT>
6

>  <SCORE.INTER.VDW>
-13.1185

>  <SCORE.INTER.norm>
-0.00720703

>  <SCORE.INTRA>
4.63629e-13

>  <SCORE.INTRA.DIHEDRAL>
-3.4639e-13

>  <SCORE.INTRA.DIHEDRAL.0>
6.00964

>  <SCORE.INTRA.POLAR>
0

>  <SCORE.INTRA.POLAR.0>
0

>  <SCORE.INTRA.REPUL>
0

>  <SCORE.INTRA.REPUL.0>
0

>  <SCORE.INTRA.VDW>
6.36824e-13

>  <SCORE.INTRA.VDW.0>
-2.65427

>  <SCORE.INTRA.norm>
1.65582e-14

>  <SCORE.RESTR>
0

>  <SCORE.RESTR.CAVITY>
0

>  <SCORE.RESTR.norm>
0

>  <SCORE.SYSTEM>
-2.26164

>  <SCORE.SYSTEM.CONST>
0

>  <SCORE.SYSTEM.DIHEDRAL>
2.35479

>  <SCORE.SYSTEM.POLAR>
-0.757851

>  <SCORE.SYSTEM.VDW>
-0.862343

>  <SCORE.SYSTEM.norm>
-0.0807729

>  <SCORE.heavy>
28

>  <SCORE.norm>
-0.0879799

$$$$
Asinex ASN 05110337
  rDOCK(R)          3D
libRbt.so/2021.1/901 2021/07/19
 33 37  0  0  0  0  0  0  0  0999 V2000
   -2.6182    6.2922   12.8471 C   0  0  0  0  0  0
   -1.3810    5.9556   13.6525 C   0  0  0  0  0  0
   -1.5068    4.9152   14.5436 N   0  0  0  0  0  0
   -3.6451    7.7627   11.1378 N   0  0  0  0  0  0
   -3.7145    5.5650   13.0578 C   0  0  0  0  0  0
   -2.6583    4.1963   14.7277 C   0  0  0  0  0  0
   -3.9503    7.2662    9.8682 C   0  0  0  0  0  0
   -3.7549    4.4863   14.0184 C   0  0  0  0  0  0
   -2.4160    7.4491   11.8808 C   0  0  0  0  0  0
   -2.6843    3.1310   15.6819 C   0  0  0  0  0  0
   -3.8595    2.4038   15.8641 C   0  0  0  0  0  0
   -4.9985    2.7143   15.1192 C   0  0  0  0  0  0
   -4.9696    3.7555   14.1891 C   0  0  0  0  0  0
   -4.3062   10.1214   11.4672 C   0  0  0  0  0  0
   -4.5988    8.6646   11.7914 C   0  0  0  0  0  0
   -2.9458    6.3282    9.2444 C   0  0  0  0  0  0
   -4.8927   10.5957   10.3460 O   0  0  0  0  0  0
   -0.3310    6.5788   13.5134 O   0  0  0  0  0  0
   -4.9728    7.5600    9.2426 O   0  0  0  0  0  0
   -3.8053    1.3657   16.7785 O   0  0  0  0  0  0
   -6.2089    2.0603   15.2665 O   0  0  0  0  0  0
   -3.5312   11.0592   12.0742 C   0  0  0  0  0  0
   -4.4920   11.8892   10.2397 C   0  0  0  0  0  0
   -3.6535   12.2220   11.2771 C   0  0  0  0  0  0
   -3.4077    5.4286    8.2971 C   0  0  0  0  0  0
   -1.6027    6.3699    9.6036 C   0  0  0  0  0  0
   -1.1628    4.5675    8.0496 C   0  0  0  0  0  0
   -0.7088    5.4817    8.9988 C   0  0  0  0  0  0
   -2.5106    4.5429    7.6976 C   0  0  0  0  0  0
   -0.2438    3.7544    7.5263 F   0  0  0  0  0  0
   -4.9306    0.4830   16.6228 C   0  0  0  0  0  0
   -6.2247    1.2733   16.4715 C   0  0  0  0  0  0
   -0.6991    4.6653   15.0972 H   0  0  0  0  0  0
  1  2  1  0  0  0
  1  5  2  0  0  0
  1  9  1  0  0  0
  2  3  1  0  0  0
  2 18  2  0  0  0
  3  6  1  0  0  0
  3 33  1  0  0  0
  4  7  1  0  0  0
  4  9  1  0  0  0
  4 15  1  0  0  0
  5  8  1  0  0  0
  6  8  1  0  0  0
  6 10  2  0  0  0
  7 16  1  0  0  0
  7 19  2  0  0  0
  8 13  2  0  0  0
 10 11  1  0  0  0
 11 12  2  0  0  0
 11 20  1  0  0  0
 12 13  1  0  0  0
 12 21  1  0  0  0
 14 15  1  0  0  0
 14 17  1  0  0  0
 14 22  2  0  0  0
 16 25  1  0  0  0
 16 26  2  0  0  0
 17 23  1  0  0  0
 20 31  1  0  0  0
 21 32  1  0  0  0
 22 24  1  0  0  0
 23 24  2  0  0  0
 25 29  2  0  0  0
 26 28  1  0  0  0
 27 28  2  0  0  0
 27 29  1  0  0  0
 27 30  1  0  0  0
 31 32  1  0  0  0
M  END
>  <$CLUSTER>
225

>  <CHROM.0>
-0.88939333,172.21664056,73.83908023

>  <CHROM.1>
-3.32134124,5.78122343,12.20649179,1.30774589,1.08197323,-0.49567926

>  <INDEX>
143704

>  <Name>
Asinex ASN 05110337

>  <RI>
-2.07807e+09

>  <Rbt.Current_Directory>
/aloy/home/acomajuncosa/PocketVec_v2/GitLab_repo

>  <Rbt.Executable>
rbdock ($Id: //depot/dev/client3/rdock/2021.1/src/exe/rbdock.cxx#4 $)

>  <Rbt.Library>
libRbt.so (2021.1, Build901 2021/07/19)

>  <Rbt.Parameter_File>
examples/2_pocketvec/rDock_results/dock.prm

>  <Rbt.Receptor>
examples/2_pocketvec/rDock_results/st_parameters.prm

>  <SCORE>
-14.5048

>  <SCORE.INTER>
-8.89679

>  <SCORE.INTER.CONST>
1

>  <SCORE.INTER.POLAR>
-1.64985

>  <SCORE.INTER.REPUL>
0

>  <SCORE.INTER.ROT>
5

>  <SCORE.INTER.VDW>
-13.6873

>  <SCORE.INTER.norm>
-0.278025

>  <SCORE.INTRA>
7.69163e-13

>  <SCORE.INTRA.DIHEDRAL>
2.69118e-13

>  <SCORE.INTRA.DIHEDRAL.0>
6.79465

>  <SCORE.INTRA.POLAR>
0

>  <SCORE.INTRA.POLAR.0>
0

>  <SCORE.INTRA.REPUL>
0

>  <SCORE.INTRA.REPUL.0>
0

>  <SCORE.INTRA.VDW>
6.34603e-13

>  <SCORE.INTRA.VDW.0>
1.39716

>  <SCORE.INTRA.norm>
2.40363e-14

>  <SCORE.RESTR>
0

>  <SCORE.RESTR.CAVITY>
0

>  <SCORE.RESTR.norm>
0

>  <SCORE.SYSTEM>
-5.60797

>  <SCORE.SYSTEM.CONST>
0

>  <SCORE.SYSTEM.DIHEDRAL>
1.26612

>  <SCORE.SYSTEM.POLAR>
-1.74539

>  <SCORE.SYSTEM.VDW>
-0.306698

>  <SCORE.SYSTEM.norm>
-0.175249

>  <SCORE.heavy>
32

>  <SCORE.norm>
-0.453274

$$$$
Chem T&I AMCLME-05084
  rDOCK(R)          3D
libRbt.so/2021.1/901 2021/07/19
 24 26  0  0  0  0  0  0  0  0999 V2000
   -6.2493    1.2211   16.9072 C   0  0  0  0  0  0
   -4.0481    2.4609   12.2373 C   0  0  0  0  0  0
   -4.8458    1.3682   14.3466 N   0  3  0  0  0  0
   -6.3712    2.4333   15.9789 C   0  0  0  0  0  0
   -5.8852   -0.0323   16.1040 C   0  0  0  0  0  0
   -3.0124    2.6300   11.3682 N   0  0  0  0  0  0
   -5.2333    1.4477   17.8802 O   0  0  0  0  0  0
   -7.5013    1.0276   17.5591 O   0  0  0  0  0  0
   -3.6941    1.5462   13.3943 C   0  0  0  0  0  0
   -5.1549    2.9809   12.1185 O   0  0  0  0  0  0
   -5.1264    2.6317   15.1238 C   0  0  0  0  0  0
   -4.6426    0.1728   15.2478 C   0  0  0  0  0  0
   -2.9305    3.3922   10.1791 C   0  0  0  0  0  0
   -2.6500    4.8685    7.8055 C   0  0  0  0  0  0
   -3.9977    4.1472    9.6853 C   0  0  0  0  0  0
   -1.7202    3.3868    9.4692 C   0  0  0  0  0  0
   -1.5812    4.1201    8.2889 C   0  0  0  0  0  0
   -3.8552    4.8819    8.5029 C   0  0  0  0  0  0
   -2.3951    5.5472    6.6389 O   0  0  0  0  0  0
   -5.8257    1.1143   19.1237 C   0  0  0  0  0  0
   -7.2829    1.4189   18.9068 C   0  0  0  0  0  0
   -3.4556    6.3285    6.1011 C   0  0  0  0  0  0
   -5.6696    1.1790   13.7942 H   0  0  0  0  0  0
   -2.1685    2.1319   11.6117 H   0  0  0  0  0  0
  1  4  1  0  0  0
  1  5  1  0  0  0
  1  7  1  0  0  0
  1  8  1  0  0  0
  2  6  1  0  0  0
  2  9  1  0  0  0
  2 10  2  0  0  0
  3  9  1  0  0  0
  3 11  1  0  0  0
  3 12  1  0  0  0
  3 23  1  0  0  0
  4 11  1  0  0  0
  5 12  1  0  0  0
  6 13  1  0  0  0
  6 24  1  0  0  0
  7 20  1  0  0  0
  8 21  1  0  0  0
 13 15  1  0  0  0
 13 16  2  0  0  0
 14 17  2  0  0  0
 14 18  1  0  0  0
 14 19  1  0  0  0
 15 18  2  0  0  0
 16 17  1  0  0  0
 19 22  1  0  0  0
 20 21  1  0  0  0
M  END
>  <$CLUSTER>
777

>  <CHROM.0>
177.09079644,172.34290826,73.74654866

>  <CHROM.1>
-4.47354211,2.66615677,12.93574765,1.95894451,-0.58459256,2.16098511

>  <INDEX>
508469

>  <Name>
Chem T&I AMCLME-05084

>  <RI>
-2.07807e+09

>  <Rbt.Current_Directory>
/aloy/home/acomajuncosa/PocketVec_v2/GitLab_repo

>  <Rbt.Executable>
rbdock ($Id: //depot/dev/client3/rdock/2021.1/src/exe/rbdock.cxx#4 $)

>  <Rbt.Library>
libRbt.so (2021.1, Build901 2021/07/19)

>  <Rbt.Parameter_File>
examples/2_pocketvec/rDock_results/dock.prm

>  <Rbt.Receptor>
examples/2_pocketvec/rDock_results/st_parameters.prm

>  <SCORE>
-12.3994

>  <SCORE.INTER>
-6.94208

>  <SCORE.INTER.CONST>
1

>  <SCORE.INTER.POLAR>
-1.44547

>  <SCORE.INTER.REPUL>
0

>  <SCORE.INTER.ROT>
4

>  <SCORE.INTER.VDW>
-11.4275

>  <SCORE.INTER.norm>
-0.315549

>  <SCORE.INTRA>
-1.80733e-12

>  <SCORE.INTRA.DIHEDRAL>
4.08784e-13

>  <SCORE.INTRA.DIHEDRAL.0>
1.77446

>  <SCORE.INTRA.POLAR>
0

>  <SCORE.INTRA.POLAR.0>
0

>  <SCORE.INTRA.REPUL>
0

>  <SCORE.INTRA.REPUL.0>
0

>  <SCORE.INTRA.VDW>
-2.01172e-12

>  <SCORE.INTRA.VDW.0>
1.59071

>  <SCORE.INTRA.norm>
-8.21515e-14

>  <SCORE.RESTR>
0

>  <SCORE.RESTR.CAVITY>
0

>  <SCORE.RESTR.norm>
0

>  <SCORE.SYSTEM>
-5.4573

>  <SCORE.SYSTEM.CONST>
0

>  <SCORE.SYSTEM.DIHEDRAL>
1.26015

>  <SCORE.SYSTEM.POLAR>
-1.74463

>  <SCORE.SYSTEM.VDW>
-0.155635

>  <SCORE.SYSTEM.norm>
-0.248059

>  <SCORE.heavy>
22

>  <SCORE.norm>
-0.563608

$$$$
Bionet 10W-0283
  rDOCK(R)          3D
libRbt.so/2021.1/901 2021/07/19
 22 23  0  0  0  0  0  0  0  0999 V2000
   -3.3385    2.9876   12.1233 N   0  0  0  0  0  0
   -4.6677    2.2646   11.3011 S   0  0  0  0  0  0
   -3.2941    2.6321   13.3326 N   0  0  0  0  0  0
   -3.3581    4.4325   12.1420 C   0  0  0  0  0  0
   -3.2182    4.8826   13.3965 C   0  0  0  0  0  0
   -3.2076    3.6690   14.2166 C   0  0  0  0  0  0
   -4.2318    0.5378   11.3808 C   0  0  0  0  0  0
   -5.8874    2.4475   12.0658 O   0  0  0  0  0  0
   -4.6180    2.6245    9.8952 O   0  0  0  0  0  0
   -3.1359    3.6325   15.4347 O   0  0  0  0  0  0
   -3.4539   -0.0523   10.3809 C   0  0  0  0  0  0
   -4.7110   -0.2525   12.4487 C   0  0  0  0  0  0
   -3.1660    6.2572   13.9537 C   0  0  0  0  0  0
   -3.4244    5.2278   10.8863 C   0  0  0  0  0  0
   -4.3964   -1.6120   12.5029 C   0  0  0  0  0  0
   -3.1439   -1.4108   10.4419 C   0  0  0  0  0  0
   -3.6143   -2.1889   11.5012 C   0  0  0  0  0  0
   -1.7649    7.9846   14.8709 O   0  0  0  0  0  0
   -1.7517    6.6571   14.3468 C   0  0  0  0  0  0
   -3.2779   -3.6447   11.5601 C   0  0  0  0  0  0
   -3.3203    1.6650   13.6218 H   0  0  0  0  0  0
   -0.8632    8.2112   15.1107 H   0  0  0  0  0  0
  1  2  1  0  0  0
  1  3  1  0  0  0
  1  4  1  0  0  0
  2  7  1  0  0  0
  2  8  2  0  0  0
  2  9  2  0  0  0
  3  6  1  0  0  0
  3 21  1  0  0  0
  4  5  2  0  0  0
  4 14  1  0  0  0
  5  6  1  0  0  0
  5 13  1  0  0  0
  6 10  2  0  0  0
  7 11  1  0  0  0
  7 12  2  0  0  0
 11 16  2  0  0  0
 12 15  1  0  0  0
 13 19  1  0  0  0
 15 17  2  0  0  0
 16 17  1  0  0  0
 17 20  1  0  0  0
 18 19  1  0  0  0
 18 22  1  0  0  0
M  END
>  <$CLUSTER>
107

>  <CHROM.0>
-2.50344248,172.68965166,73.93470468

>  <CHROM.1>
-3.64182260,2.45001273,12.37350638,1.14513806,-1.16445453,-0.05393741

>  <INDEX>
8117

>  <Name>
Bionet 10W-0283

>  <RI>
-2.07807e+09

>  <Rbt.Current_Directory>
/aloy/home/acomajuncosa/PocketVec_v2/GitLab_repo

>  <Rbt.Executable>
rbdock ($Id: //depot/dev/client3/rdock/2021.1/src/exe/rbdock.cxx#4 $)

>  <Rbt.Library>
libRbt.so (2021.1, Build901 2021/07/19)

>  <Rbt.Parameter_File>
examples/2_pocketvec/rDock_results/dock.prm

>  <Rbt.Receptor>
examples/2_pocketvec/rDock_results/st_parameters.prm

>  <SCORE>
-17.0415

>  <SCORE.INTER>
-11.4397

>  <SCORE.INTER.CONST>
1

>  <SCORE.INTER.POLAR>
-1.57423

>  <SCORE.INTER.REPUL>
0

>  <SCORE.INTER.ROT>
4

>  <SCORE.INTER.VDW>
-15.4873

>  <SCORE.INTER.norm>
-0.571984

>  <SCORE.INTRA>
-1.95177e-13

>  <SCORE.INTRA.DIHEDRAL>
-3.42393e-13

>  <SCORE.INTRA.DIHEDRAL.0>
2.55603

>  <SCORE.INTRA.POLAR>
0

>  <SCORE.INTRA.POLAR.0>
0

>  <SCORE.INTRA.REPUL>
0

>  <SCORE.INTRA.REPUL.0>
0

>  <SCORE.INTRA.VDW>
-2.39808e-14

>  <SCORE.INTRA.VDW.0>
-2.3876

>  <SCORE.INTRA.norm>
-9.75886e-15

>  <SCORE.RESTR>
0

>  <SCORE.RESTR.CAVITY>
0

>  <SCORE.RESTR.norm>
0

>  <SCORE.SYSTEM>
-5.60178

>  <SCORE.SYSTEM.CONST>
0

>  <SCORE.SYSTEM.DIHEDRAL>
1.25497

>  <SCORE.SYSTEM.POLAR>
-1.74618

>  <SCORE.SYSTEM.VDW>
-0.29226

>  <SCORE.SYSTEM.norm>
-0.280089

>  <SCORE.heavy>
20

>  <SCORE.norm>
-0.852073

$$$$
ASDI 100018405
  rDOCK(R)          3D
libRbt.so/2021.1/901 2021/07/19
 20 21  0  0  0  0  0  0  0  0999 V2000
   -4.6868    0.2105   10.6351 S   0  0  0  0  0  0
   -5.3839    1.2369   11.8191 N   0  0  0  0  0  0
   -4.5126    2.1335   12.5339 C   0  0  0  0  0  0
   -4.2684    1.9288   13.8984 C   0  0  0  0  0  0
   -3.3862    2.7656   14.5897 C   0  0  0  0  0  0
   -4.8520    0.8416   14.5142 O   0  0  0  0  0  0
   -5.7621   -0.5077    9.9784 O   0  0  0  0  0  0
   -3.6872    0.9144    9.8585 O   0  0  0  0  0  0
   -3.8998    3.2019   11.8744 C   0  0  0  0  0  0
   -2.7772    3.8294   13.9245 C   0  0  0  0  0  0
   -3.8454   -0.9600   11.6780 C   0  0  0  0  0  0
   -5.5713    1.0839   15.6635 C   0  0  0  0  0  0
   -3.0374    4.0494   12.5710 C   0  0  0  0  0  0
   -1.7169    4.8535   14.7772 Cl  0  0  0  0  0  0
   -5.4081    0.1746   16.7107 C   0  0  0  0  0  0
   -6.4854    2.1354   15.7823 C   0  0  0  0  0  0
   -6.1322    0.3382   17.8917 C   0  0  0  0  0  0
   -7.2068    2.2947   16.9662 C   0  0  0  0  0  0
   -7.0287    1.3997   18.0215 C   0  0  0  0  0  0
   -6.3751    1.2135   12.0098 H   0  0  0  0  0  0
  1  2  1  0  0  0
  1  7  2  0  0  0
  1  8  2  0  0  0
  1 11  1  0  0  0
  2  3  1  0  0  0
  2 20  1  0  0  0
  3  4  2  0  0  0
  3  9  1  0  0  0
  4  5  1  0  0  0
  4  6  1  0  0  0
  5 10  2  0  0  0
  6 12  1  0  0  0
  9 13  2  0  0  0
 10 13  1  0  0  0
 10 14  1  0  0  0
 12 15  2  0  0  0
 12 16  1  0  0  0
 15 17  1  0  0  0
 16 18  2  0  0  0
 17 19  2  0  0  0
 18 19  1  0  0  0
M  END
>  <$CLUSTER>
839

>  <CHROM.0>
174.83326082,170.51355139,73.07433442

>  <CHROM.1>
-4.49943810,1.75880430,13.63595362,1.33699150,-0.81345342,-1.97580003

>  <INDEX>
3627

>  <Name>
ASDI 100018405

>  <RI>
-2.07807e+09

>  <Rbt.Current_Directory>
/aloy/home/acomajuncosa/PocketVec_v2/GitLab_repo

>  <Rbt.Executable>
rbdock ($Id: //depot/dev/client3/rdock/2021.1/src/exe/rbdock.cxx#4 $)

>  <Rbt.Library>
libRbt.so (2021.1, Build901 2021/07/19)

>  <Rbt.Parameter_File>
examples/2_pocketvec/rDock_results/dock.prm

>  <Rbt.Receptor>
examples/2_pocketvec/rDock_results/st_parameters.prm

>  <SCORE>
-18.3902

>  <SCORE.INTER>
-12.9448

>  <SCORE.INTER.CONST>
1

>  <SCORE.INTER.POLAR>
-0.867058

>  <SCORE.INTER.REPUL>
0

>  <SCORE.INTER.ROT>
4

>  <SCORE.INTER.VDW>
-19.3968

>  <SCORE.INTER.norm>
-0.681303

>  <SCORE.INTRA>
-1.32205e-12

>  <SCORE.INTRA.DIHEDRAL>
-6.78568e-13

>  <SCORE.INTRA.DIHEDRAL.0>
17.6747

>  <SCORE.INTRA.POLAR>
0

>  <SCORE.INTRA.POLAR.0>
0

>  <SCORE.INTRA.REPUL>
0

>  <SCORE.INTRA.REPUL.0>
0

>  <SCORE.INTRA.VDW>
-9.82769e-13

>  <SCORE.INTRA.VDW.0>
-2.13443

>  <SCORE.INTRA.norm>
-6.95818e-14

>  <SCORE.RESTR>
0

>  <SCORE.RESTR.CAVITY>
0

>  <SCORE.RESTR.norm>
0

>  <SCORE.SYSTEM>
-5.44549

>  <SCORE.SYSTEM.CONST>
0

>  <SCORE.SYSTEM.DIHEDRAL>
1.35686

>  <SCORE.SYSTEM.POLAR>
-1.73908

>  <SCORE.SYSTEM.VDW>
-0.211058

>  <SCORE.SYSTEM.norm>
-0.286605

>  <SCORE.heavy>
19

>  <SCORE.norm>
-0.967908

$$$$
